geometry optimzed in LAMMPS
_audit_creation_date              2020-11-30 
_audit_creation_method            'lammps2cif' 
_symmetry_space_group_name_H-M    'P1' 
_symmetry_Int_Tables_number       1 
_symmetry_cell_setting            triclinic 
loop_ 
_symmetry_equiv_pos_as_xyz 
  x,y,z 
_cell_length_a                    41.97256462 
_cell_length_b                    42.30830216965025 
_cell_length_c                    38.44258555157723 
_cell_angle_alpha                 89.74169095871451 
_cell_angle_beta                  89.91917738584071 
_cell_angle_gamma                 90.01839154604224 
loop_ 
_atom_site_label 
_atom_site_type_symbol 
_atom_site_fract_x 
_atom_site_fract_y 
_atom_site_fract_z 
_atom_site_charge 
C1          C  0.49456803  0.40036437  0.42210374     0.43000
N2          N  0.00956967  0.43011386  0.46506486     0.01800
C3          C  0.41575635  0.02780983  0.06412922    -0.06000
H4          H  0.41424272  0.05673208  0.43231114     0.07300
C5          C  0.03309129  0.07779054  0.43777910    -0.06400
Co6        Co  0.45301748  0.46207040  0.99944311     0.74200
N7          N  0.43411151  0.01951784  0.46372683    -0.25600
Co8        Co  0.45995964  0.04241272  0.50235626     0.74100
C9          C  0.50539159  0.09322517  0.42257886     0.43100
N10         N  0.06663896  0.00893468  0.46716311     0.01500
N11         N  0.48853501  0.06450497  0.46505766     0.01600
N12         N  0.41099725  0.47928129  0.06227598    -0.46400
H13         H  0.44174936  0.41316424  0.43088180     0.07300
N14         N  0.43361177  0.48847491  0.46123702     0.01900
N15         N  0.48693084  0.06290717  0.04139371     0.01600
C16         C  0.99924840  0.09463285  0.08005673     0.43200
N17         N  0.06512183  0.47405535  0.46786279    -0.25000
C18         C  0.45967900  0.41400101  0.06067017    -0.05900
N19         N  0.02083332  0.41047898  0.44122632    -0.46100
N20         N  0.47587243  0.08211243  0.06581286    -0.46300
C21         C  0.98579601  0.40443883  0.08529785     0.43000
N22         N  0.43047698  0.48940500  0.03741418     0.01800
N23         N  0.06112946  0.47665326  0.04333630    -0.25000
N24         N  0.47821828  0.43314810  0.46345593    -0.25500
N25         N  0.06203854  0.00671713  0.04272638     0.01500
H26         H  0.08137582  0.44143409  0.07768914     0.07400
H27         H  0.05234084  0.08335269  0.07048354     0.07400
N28         N  0.43303801  0.01694100  0.03746356    -0.25600
N29         N  0.02049448  0.06187949  0.46469055    -0.25200
N30         N  0.00450472  0.43253399  0.04293489     0.01800
C31         C  0.40576880  0.50607556  0.41839527     0.43200
C32         C  0.08355331  0.46197035  0.44255302    -0.06400
N33         N  0.01601399  0.06031263  0.04049236    -0.25200
H34         H  0.05826774  0.08010909  0.43264674     0.07400
N35         N  0.41450706  0.47947036  0.43569765    -0.46400
H36         H  0.08576575  0.43714035  0.43657171     0.07400
C37         C  0.09001343  0.99168617  0.08650155     0.43100
C38         C  0.46666637  0.41554117  0.43748251    -0.05900
Co39       Co  0.03473198  0.45249301  0.00517068     0.73800
N40         N  0.08607047  0.01941831  0.44248869    -0.46100
C41         C  0.40099471  0.99968673  0.07955217     0.43300
N42         N  0.01288177  0.41374798  0.06895899    -0.47000
Co43       Co  0.04251526  0.03624728  0.50387353     0.73900
C44         C  0.02737221  0.07938660  0.06519464    -0.06400
C45         C  0.41713769  0.03178238  0.43742872    -0.06000
N46         N  0.47358484  0.43334858  0.03736363    -0.25500
N47         N  0.47895107  0.08333617  0.43960899    -0.46300
H48         H  0.41384901  0.05236232  0.07148553     0.07300
C49         C  0.07843434  0.46597592  0.07039121    -0.06400
Cl50       Cl  0.99661463  0.99569678  0.00254443    -0.49400
C51         C  0.09876772  0.48947972  0.42611996     0.43100
H52         H  0.43430072  0.41102515  0.06422805     0.07300
N53         N  0.07990006  0.01729842  0.06856894    -0.46100
N54         N  0.49603579  0.29605202  0.25162954    -0.36100
N55         N  0.49700254  0.24703240  0.19880212    -0.56700
N56         N  0.50311459  0.19899161  0.25333357    -0.36100
N57         N  0.49705167  0.24769427  0.30622403    -0.56700
C58         C  0.48732635  0.31316922  0.22335515     0.27500
C59         C  0.48894496  0.31352277  0.27999966     0.27500
C60         C  0.49924563  0.18028830  0.22519204     0.27500
C61         C  0.49767695  0.18084338  0.28185135     0.27500
C62         C  0.49817022  0.27274337  0.17774117     0.36100
C63         C  0.50336329  0.22164138  0.17866764     0.36100
C64         C  0.50161716  0.27365318  0.32585692     0.36100
C65         C  0.50332481  0.22260113  0.32692503     0.36100
C66         C  0.47470465  0.34187263  0.23395054    -0.21400
C67         C  0.47600002  0.34221243  0.26968423    -0.21400
C68         C  0.49195428  0.14978263  0.23600544    -0.21400
C69         C  0.49082126  0.15017468  0.27172897    -0.21400
C70         C  0.50491136  0.26352836  0.14395311    -0.22400
C71         C  0.50807621  0.23121552  0.14452757    -0.22400
C72         C  0.51052982  0.26502127  0.35930158    -0.22400
C73         C  0.51150015  0.23260946  0.36000541    -0.22400
C74         C  0.49190463  0.30426541  0.18823651    -0.17800
C75         C  0.49538495  0.30487745  0.31482699    -0.17800
C76         C  0.50036637  0.19074979  0.31679937    -0.17800
C77         C  0.50294192  0.18973804  0.19004268    -0.17800
H78         H  0.46581840  0.36080545  0.21760840     0.15100
H79         H  0.46833524  0.36144673  0.28616928     0.15100
H80         H  0.48782188  0.12929565  0.21986779     0.15100
H81         H  0.48574207  0.13007153  0.28835701     0.15100
H82         H  0.50719578  0.27846086  0.12116152     0.13400
H83         H  0.51307743  0.21643271  0.12227422     0.13400
H84         H  0.51536072  0.28044128  0.38105877     0.13400
H85         H  0.51745284  0.21807856  0.38231140     0.13400
H86         H  0.50780916  0.27475785  0.25164101     0.26700
H87         H  0.51045278  0.22212184  0.25304586     0.26700
N88         N  0.20015923  0.50543452  0.25296219    -0.36100
N89         N  0.24892752  0.50782062  0.19904277    -0.56700
N90         N  0.29773502  0.51304766  0.25192765    -0.36100
N91         N  0.24912717  0.50679943  0.30585409    -0.56700
C92         C  0.18306965  0.49701856  0.22476180     0.27500
C93         C  0.18329580  0.49645026  0.28129920     0.27500
C94         C  0.31569995  0.50682941  0.22356661     0.27500
C95         C  0.31570410  0.50633522  0.28010950     0.27500
C96         C  0.22272652  0.51091546  0.17901967     0.36100
C97         C  0.27411737  0.51468212  0.17848018     0.36100
C98         C  0.22321107  0.51013339  0.32628129     0.36100
C99         C  0.27448211  0.51413129  0.32570821     0.36100
C100        C  0.15480526  0.48287401  0.23527532    -0.21400
C101        C  0.15496673  0.48248989  0.27103004    -0.21400
C102        C  0.34563657  0.49656207  0.23387472    -0.21400
C103        C  0.34560126  0.49615411  0.26960679    -0.21400
C104        C  0.23128118  0.51957998  0.14547267    -0.22400
C105        C  0.26392474  0.52183352  0.14509069    -0.22400
C106        C  0.23210127  0.51945689  0.35939402    -0.22400
C107        C  0.26471957  0.52205657  0.35901258    -0.22400
C108        C  0.19153592  0.50328088  0.18987820    -0.17800
C109        C  0.19203158  0.50215941  0.31610142    -0.17800
C110        C  0.30636209  0.51062857  0.31501894    -0.17800
C111        C  0.30620449  0.51150801  0.18871597    -0.17800
H112        H  0.13593138  0.47391427  0.21888875     0.15100
H113        H  0.13623353  0.47324808  0.28757000     0.15100
H114        H  0.36552142  0.49011664  0.21742844     0.15100
H115        H  0.36540960  0.48929312  0.28598289     0.15100
H116        H  0.21569039  0.52313066  0.12339776     0.13400
H117        H  0.27849515  0.52744805  0.12265257     0.13400
H118        H  0.21675099  0.52340263  0.38160222     0.13400
H119        H  0.27960670  0.52832013  0.38089550     0.13400
H120        H  0.22121264  0.51829168  0.25283777     0.26700
H121        H  0.27510511  0.52293136  0.25211943     0.26700
C122        C  0.13776600  0.47091707  0.11931982    -0.11800
C123        C  0.11721837  0.49665131  0.11343421     0.05200
C124        C  0.12082293  0.01981451  0.13385461    -0.07100
C125        C  0.14568104  0.01994135  0.15800457    -0.07800
C126        C  0.16630255  0.50068429  0.16323670    -0.02400
C127        C  0.16251352  0.47298497  0.14364837     0.04500
N128        N  0.18431874  0.44728057  0.14759241     0.67000
H129        H  0.13524414  0.44946144  0.10431671     0.15900
H130        H  0.15025057  0.04108578  0.17302723     0.15600
N131        N  0.10165257  0.04756757  0.13059756     0.74700
O132        O  0.18290891  0.42994676  0.17434473    -0.38800
O133        O  0.20845093  0.44580486  0.12805401    -0.38700
O134        O  0.08076929  0.05303278  0.15344230    -0.39400
O135        O  0.11331989  0.57381045  0.10723451    -0.39500
C136        C  0.12424090  0.51970562  0.37802379    -0.11800
C137        C  0.12193624  0.49118445  0.39692595     0.05200
C138        C  0.14261875  0.46599591  0.38822195    -0.07100
C139        C  0.16514820  0.46995051  0.36165765    -0.07800
C140        C  0.16742939  0.49850033  0.34339306    -0.02400
C141        C  0.14662889  0.52339600  0.35130844     0.04500
N142        N  0.14863880  0.55272835  0.33283528     0.67000
H143        H  0.10871355  0.53934519  0.38416276     0.15900
H144        H  0.18131073  0.45077555  0.35555083     0.15600
N145        N  0.14248042  0.43686622  0.40706466     0.74700
O146        O  0.13499623  0.55559110  0.30376236    -0.38800
O147        O  0.17413487  0.07478476  0.34454485    -0.38700
O148        O  0.13198788  0.41237536  0.39239038    -0.39400
O149        O  0.15320838  0.93516594  0.43155729    -0.39500
C150        C  0.36860394  0.53521387  0.12228177    -0.11800
C151        C  0.37801195  0.50572058  0.10896284     0.05200
C152        C  0.36646837  0.96960005  0.12280935    -0.07100
C153        C  0.34291539  0.96977725  0.14860780    -0.07800
C154        C  0.33093718  0.51002357  0.16128316    -0.02400
C155        C  0.34515658  0.53755142  0.14791986     0.04500
N156        N  0.33530438  0.56813255  0.15927501     0.67000
H157        H  0.37890903  0.55691266  0.11248579     0.15900
H158        H  0.33441848  0.94757015  0.15931367     0.15600
N159        N  0.37987607  0.93999142  0.11293094     0.74700
O160        O  0.35137267  0.58221583  0.18218275    -0.38800
O161        O  0.31095457  0.07206796  0.14283281    -0.38700
O162        O  0.38869315  0.42944088  0.12869509    -0.39400
O163        O  0.36458962  0.92221374  0.09263746    -0.39500
C164        C  0.35169471  0.53541861  0.34563690    -0.11800
C165        C  0.33136999  0.50955915  0.34192515     0.05200
C166        C  0.33608860  0.48226519  0.36218329    -0.07100
C167        C  0.35841842  0.97774618  0.38941199    -0.07800
C168        C  0.38110597  0.50752549  0.39091066    -0.02400
C169        C  0.37673526  0.53457899  0.36949686     0.04500
N170        N  0.39837390  0.56065341  0.36988452     0.67000
H171        H  0.34857687  0.55606900  0.32919102     0.15900
H172        H  0.36099567  0.95788545  0.40707422     0.15600
N173        N  0.31686085  0.45481334  0.35695463     0.74700
O174        O  0.42289961  0.55965233  0.35089801    -0.38800
O175        O  0.38796887  0.08218164  0.37626337    -0.38700
O176        O  0.32268719  0.43681092  0.33165029    -0.39400
O177        O  0.28906860  0.94699406  0.37611104    -0.39500
C178        C  0.02635909  0.12375119  0.12747103    -0.11800
C179        C  0.50094578  0.11652620  0.11219946     0.05200
C180        C  0.47247828  0.13074933  0.12430980    -0.07100
C181        C  0.47381151  0.15461693  0.14941792    -0.07800
C182        C  0.50294744  0.16458662  0.16319115    -0.02400
C183        C  0.02785622  0.14715456  0.15294167     0.04500
N184        N  0.05658070  0.15067679  0.17245701     0.67000
H185        H  0.04700247  0.10882008  0.12376271     0.15900
H186        H  0.45188440  0.16539852  0.15840187     0.15600
N187        N  0.44194150  0.12137595  0.11170027     0.74700
O188        O  0.06153469  0.13259905  0.19808010    -0.38800
O189        O  0.07984483  0.16495874  0.15873797    -0.38700
O190        O  0.42559225  0.10208483  0.12938517    -0.39400
O191        O  0.42824205  0.13836944  0.08919643    -0.39500
C192        C  0.02988566  0.14558497  0.34485877    -0.11800
C193        C  0.50152567  0.16603330  0.34418642     0.05200
C194        C  0.47438204  0.15775949  0.36366311    -0.07100
C195        C  0.47642983  0.13403877  0.38891910    -0.07800
C196        C  0.50504770  0.11763565  0.39477738    -0.02400
C197        C  0.03176755  0.12103393  0.36924357     0.04500
N198        N  0.06040981  0.10287092  0.37070715     0.67000
H199        H  0.05067206  0.15156705  0.32940363     0.15900
H200        H  0.45523722  0.12829755  0.40378899     0.15600
N201        N  0.44421755  0.17213868  0.35700975     0.74700
O202        O  0.06332300  0.07949071  0.35067849    -0.38800
O203        O  0.08509791  0.11501117  0.38375098    -0.38700
O204        O  0.42467756  0.15815580  0.33746610    -0.39400
O205        O  0.43422982  0.19339239  0.37718739    -0.39500
C206        C  0.01476520  0.36862451  0.12525236    -0.11800
C207        C  0.48542574  0.37489962  0.10698539     0.05200
C208        C  0.46236600  0.35061465  0.10963890    -0.07100
C209        C  0.46457915  0.32813813  0.13650918    -0.07800
C210        C  0.48938975  0.32935519  0.16091985    -0.02400
C211        C  0.01664367  0.34457395  0.15011162     0.04500
N212        N  0.04723797  0.33322682  0.16045249     0.67000
H213        H  0.03681832  0.37790353  0.11467299     0.15900
H214        H  0.44719236  0.30922842  0.13796015     0.15600
N215        N  0.43783925  0.34706993  0.08422424     0.74700
O216        O  0.06101313  0.31266964  0.14212667    -0.38800
O217        O  0.06319430  0.34870896  0.18233652    -0.38700
O218        O  0.44185430  0.32767142  0.05976650    -0.39400
O219        O  0.40997456  0.35616914  0.09139355    -0.39500
C220        C  0.46682789  0.35970005  0.38604250    -0.11800
C221        C  0.49500108  0.37624315  0.39410781     0.05200
C222        C  0.02521370  0.36729695  0.37770911    -0.07100
C223        C  0.02508199  0.34303429  0.35301075    -0.07800
C224        C  0.49460827  0.32985759  0.34159994    -0.02400
C225        C  0.46660221  0.33641030  0.36023603     0.04500
N226        N  0.43808826  0.31896936  0.35360384     0.67000
H227        H  0.44503631  0.36427791  0.40023625     0.15900
H228        H  0.04689000  0.33722263  0.33933056     0.15600
N229        N  0.05432692  0.38382764  0.38374373     0.74700
O230        O  0.43380688  0.29269347  0.36855549    -0.38800
O231        O  0.42071723  0.32651453  0.32812889    -0.38700
O232        O  0.07498474  0.37149841  0.40337151    -0.39400
O233        O  0.06259871  0.40545553  0.36289611    -0.39500
C234        C  0.49460411  0.40378914  0.92025402     0.43000
N235        N  0.00761848  0.42942532  0.96699405     0.01800
C236        C  0.41566542  0.03076250  0.56562098    -0.06000
H237        H  0.41613243  0.05783206  0.93228529     0.07300
C238        C  0.03051866  0.07663472  0.93886336    -0.06400
Co239      Co  0.45397121  0.46010534  0.50013206     0.74200
N240        N  0.43618321  0.01950966  0.96180693    -0.25600
Co241      Co  0.46113212  0.04131361  0.00163124     0.74100
C242        C  0.50702401  0.09223761  0.92277870     0.43100
N243        N  0.06442153  0.00706378  0.96663689     0.01500
N244        N  0.49032665  0.06376715  0.96539665     0.01600
N245        N  0.41099016  0.47807649  0.56163995    -0.46400
H246        H  0.44161405  0.41651356  0.92820333     0.07300
N247        N  0.43296821  0.49123567  0.96131173     0.01900
N248        N  0.48656259  0.06474883  0.54117583     0.01600
C249        C  0.00021230  0.09602524  0.58131430     0.43200
N250        N  0.06347181  0.47399075  0.96701583    -0.25000
C251        C  0.46209187  0.41360411  0.56302958    -0.05900
N252        N  0.01768289  0.40797060  0.94441865    -0.46100
N253        N  0.47589524  0.08434718  0.56543223    -0.46300
C254        C  0.98634120  0.40402510  0.58446866     0.43000
N255        N  0.43111853  0.48791017  0.53728787     0.01800
N256        N  0.06114660  0.47512424  0.54375321    -0.25000
N257        N  0.47749849  0.43575974  0.96214272    -0.25500
N258        N  0.06300170  0.00948074  0.54310306     0.01500
H259        H  0.08079846  0.43901671  0.57733490     0.07400
H260        H  0.05351384  0.08512188  0.57199073     0.07400
N261        N  0.43272883  0.01879273  0.53946944    -0.25600
N262        N  0.01809762  0.05955723  0.96501686    -0.25200
N263        N  0.00510230  0.43111448  0.54134889     0.01800
C264        C  0.40414623  0.50932809  0.91942067     0.43200
C265        C  0.08122647  0.46162373  0.94121763    -0.06400
N266        N  0.01768258  0.06304332  0.54045406    -0.25200
H267        H  0.05568633  0.07964864  0.93417349     0.07400
N268        N  0.41343072  0.48259879  0.93606473    -0.46400
H269        H  0.08314956  0.43670418  0.93565843     0.07400
C270        C  0.09037759  0.99556814  0.58760572     0.43100
C271        C  0.46640650  0.41876975  0.93539468    -0.05900
Co272      Co  0.03568894  0.45191479  0.50460710     0.73800
N273        N  0.08334547  0.01819296  0.94191958    -0.46100
C274        C  0.40085557  0.00341113  0.58247321     0.43300
N275        N  0.01344584  0.41300385  0.56798594    -0.47000
Co276      Co  0.04067710  0.03376114  0.00384541     0.73900
C277        C  0.02864841  0.08155691  0.56596787    -0.06400
C278        C  0.41931870  0.03272294  0.93604462    -0.06000
N279        N  0.47536280  0.43247412  0.53879154    -0.25500
N280        N  0.48069703  0.08240707  0.93988181    -0.46300
H281        H  0.41361235  0.05565239  0.57138200     0.07300
C282        C  0.07792153  0.46373537  0.57077617    -0.06400
Cl283      Cl  0.99813814  0.99853322  0.50203644    -0.49400
C284        C  0.09625276  0.48895841  0.92390466     0.43100
H285        H  0.43680767  0.41050169  0.56712745     0.07300
N286        N  0.08051076  0.02065112  0.56882917    -0.46100
N287        N  0.50002986  0.29600413  0.75352271    -0.36100
N288        N  0.50166780  0.24668480  0.70075881    -0.56700
N289        N  0.50524375  0.19869591  0.75525250    -0.36100
N290        N  0.49824154  0.24781466  0.80807895    -0.56700
C291        C  0.49244690  0.31315681  0.72493340     0.27500
C292        C  0.49269198  0.31373639  0.78157539     0.27500
C293        C  0.50141942  0.18011599  0.72701278     0.27500
C294        C  0.49809707  0.18095349  0.78355915     0.27500
C295        C  0.50382572  0.27239622  0.67979904     0.36100
C296        C  0.50830027  0.22123536  0.68081031     0.36100
C297        C  0.50255556  0.27366918  0.82799662     0.36100
C298        C  0.50317444  0.22256961  0.82898990     0.36100
C299        C  0.48039126  0.34225525  0.73500712    -0.21400
C300        C  0.48074296  0.34269593  0.77074611    -0.21400
C301        C  0.49222525  0.15006324  0.73757770    -0.21400
C302        C  0.49010847  0.15060051  0.77323738    -0.21400
C303        C  0.51152248  0.26318896  0.64627604    -0.22400
C304        C  0.51441570  0.23084463  0.64692784    -0.22400
C305        C  0.50986119  0.26483021  0.86182498    -0.22400
C306        C  0.51018058  0.23239492  0.86247469    -0.22400
C307        C  0.49740871  0.30392714  0.68999995    -0.17800
C308        C  0.49778962  0.30506828  0.81664543    -0.17800
C309        C  0.50029249  0.19076094  0.81858388    -0.17800
C310        C  0.50652865  0.18927841  0.69199307    -0.17800
H311        H  0.47239832  0.36134041  0.71833497     0.15100
H312        H  0.47304348  0.36214461  0.78690591     0.15100
H313        H  0.48745023  0.12980672  0.72129885     0.15100
H314        H  0.48351033  0.13083189  0.78971324     0.15100
H315        H  0.51456860  0.27818512  0.62363271     0.13400
H316        H  0.52000476  0.21605086  0.62485069     0.13400
H317        H  0.51414441  0.28014587  0.88380858     0.13400
H318        H  0.51495407  0.21773298  0.88501724     0.13400
H319        H  0.51121791  0.27420094  0.75396825     0.26700
H320        H  0.51376063  0.22165840  0.75530983     0.26700
N321        N  0.20011298  0.50314538  0.75167957    -0.36100
N322        N  0.24953189  0.50584524  0.69794297    -0.56700
N323        N  0.29766783  0.51305025  0.75120251    -0.36100
N324        N  0.24840494  0.50571210  0.80492996    -0.56700
C325        C  0.18319968  0.49460354  0.72344174     0.27500
C326        C  0.18242685  0.49563736  0.77992398     0.27500
C327        C  0.31631707  0.50855057  0.72293562     0.27500
C328        C  0.31580790  0.50725205  0.77948848     0.27500
C329        C  0.22342144  0.50736009  0.67759182     0.36100
C330        C  0.27457628  0.51321458  0.67738714     0.36100
C331        C  0.22247290  0.50745690  0.82564925     0.36100
C332        C  0.27381998  0.51108888  0.82546428     0.36100
C333        C  0.15420057  0.48189057  0.73380557    -0.21400
C334        C  0.15365103  0.48267952  0.76947506    -0.21400
C335        C  0.34685566  0.50047863  0.73341400    -0.21400
C336        C  0.34655051  0.49969987  0.76911584    -0.21400
C337        C  0.23190697  0.51542738  0.64383752    -0.22400
C338        C  0.26438895  0.51912038  0.64370327    -0.22400
C339        C  0.23148886  0.51346174  0.85965117    -0.22400
C340        C  0.26406525  0.51581778  0.85952602    -0.22400
C341        C  0.19228804  0.49965249  0.68853117    -0.17800
C342        C  0.19101235  0.50132381  0.81479167    -0.17800
C343        C  0.30583743  0.50958756  0.81447353    -0.17800
C344        C  0.30672351  0.51205104  0.68794245    -0.17800
H345        H  0.13523004  0.47321162  0.71736210     0.15100
H346        H  0.13417455  0.47470040  0.78576253     0.15100
H347        H  0.36724801  0.49553230  0.71705892     0.15100
H348        H  0.36669364  0.49406237  0.78556101     0.15100
H349        H  0.21636849  0.51794965  0.62155142     0.13400
H350        H  0.27890201  0.52505253  0.62130794     0.13400
H351        H  0.21626644  0.51539292  0.88228937     0.13400
H352        H  0.27890912  0.52000719  0.88204058     0.13400
H353        H  0.22165491  0.51507576  0.75153066     0.26700
H354        H  0.27429483  0.52091256  0.75129790     0.26700
C355        C  0.13743760  0.46763149  0.61905410    -0.11800
C356        C  0.11646304  0.49324718  0.61451179     0.05200
C357        C  0.11913003  0.02545878  0.63486722    -0.07100
C358        C  0.14399333  0.02734694  0.65884334    -0.07800
C359        C  0.16706149  0.49727428  0.66205572    -0.02400
C360        C  0.16273287  0.46956015  0.64265806     0.04500
N361        N  0.18373167  0.44326680  0.64709650     0.67000
H362        H  0.13462047  0.44633922  0.60383338     0.15900
H363        H  0.14710872  0.04875042  0.67386761     0.15600
N364        N  0.09824118  0.05195251  0.63144344     0.74700
O365        O  0.18007018  0.42496728  0.67280266    -0.38800
O366        O  0.20910495  0.44192016  0.62952615    -0.38700
O367        O  0.07653673  0.05580844  0.65377599    -0.39400
O368        O  0.10761463  0.57070856  0.61394208    -0.39500
C369        C  0.12768041  0.52104034  0.88157149    -0.11800
C370        C  0.11983596  0.49081634  0.89482804     0.05200
C371        C  0.13532111  0.46418000  0.88023795    -0.07100
C372        C  0.15834773  0.46827730  0.85429612    -0.07800
C373        C  0.16603718  0.49824939  0.84176721    -0.02400
C374        C  0.15037324  0.52481880  0.85512824     0.04500
N375        N  0.15779053  0.55573760  0.84236020     0.67000
H376        H  0.11616240  0.54198620  0.89170556     0.15900
H377        H  0.17034139  0.44776694  0.84367544     0.15600
N378        N  0.12795620  0.43260368  0.89027209     0.74700
O379        O  0.14780121  0.56429025  0.81283829    -0.38800
O380        O  0.17197004  0.07819473  0.84876954    -0.38700
O381        O  0.11723357  0.41444351  0.86715493    -0.39400
O382        O  0.14864526  0.93128222  0.92468403    -0.39500
C383        C  0.37486977  0.53283668  0.62706696    -0.11800
C384        C  0.37753271  0.50505413  0.60735655     0.05200
C385        C  0.36160288  0.97650322  0.62360014    -0.07100
C386        C  0.33785690  0.97897204  0.64900652    -0.07800
C387        C  0.33146115  0.51022794  0.66049668    -0.02400
C388        C  0.35203357  0.53565567  0.65332012     0.04500
N389        N  0.34949446  0.56477736  0.67177045     0.67000
H390        H  0.39045619  0.55272086  0.62213267     0.15900
H391        H  0.32594594  0.95779201  0.65824629     0.15600
N392        N  0.37032376  0.94574198  0.61195479     0.74700
O393        O  0.36814651  0.57004324  0.69679487    -0.38800
O394        O  0.32192890  0.08500258  0.64958739    -0.38700
O395        O  0.37150696  0.42692170  0.60789926    -0.39400
O396        O  0.35327347  0.93216277  0.58952010    -0.39500
C397        C  0.34691984  0.53746162  0.84854856    -0.11800
C398        C  0.33075607  0.50945156  0.84143639     0.05200
C399        C  0.33884613  0.48154074  0.85912673    -0.07100
C400        C  0.35886240  0.98133092  0.88838114    -0.07800
C401        C  0.37936402  0.51025992  0.89186123    -0.02400
C402        C  0.37122354  0.53819525  0.87329039     0.04500
N403        N  0.38775270  0.56734045  0.87800582     0.67000
H404        H  0.34087036  0.55885119  0.83439170     0.15900
H405        H  0.36182655  0.96085323  0.90508816     0.15600
N406        N  0.32321285  0.45244167  0.85114037     0.74700
O407        O  0.41095855  0.57377326  0.85830142    -0.38800
O408        O  0.38898974  0.08581640  0.87820983    -0.38700
O409        O  0.33110305  0.43741984  0.82418545    -0.39400
O410        O  0.28874098  0.95229341  0.87938217    -0.39500
C411        C  0.02756450  0.13305934  0.62184313    -0.11800
C412        C  0.50175030  0.11801434  0.61194887     0.05200
C413        C  0.47623242  0.13920062  0.61764945    -0.07100
C414        C  0.47836129  0.16190637  0.64395137    -0.07800
C415        C  0.50552277  0.16421068  0.66491184    -0.02400
C416        C  0.02762059  0.15656454  0.64732082     0.04500
N417        N  0.05735638  0.16830986  0.65984980     0.67000
H418        H  0.05027826  0.12460613  0.61238876     0.15900
H419        H  0.45880087  0.17826570  0.64773458     0.15600
N420        N  0.44866578  0.13928791  0.59595970     0.74700
O421        O  0.07236892  0.15271595  0.68257227    -0.38800
O422        O  0.07171717  0.18951744  0.64278257    -0.38700
O423        O  0.42281656  0.12842045  0.60780227    -0.39400
O424        O  0.44802920  0.15742995  0.56982830    -0.39500
C425        C  0.02575404  0.14708901  0.84741817    -0.11800
C426        C  0.50179960  0.16580424  0.84563782     0.05200
C427        C  0.47560573  0.15873474  0.86713408    -0.07100
C428        C  0.47808570  0.13458762  0.89179061    -0.07800
C429        C  0.50625296  0.11690183  0.89540212    -0.02400
C430        C  0.02870697  0.12304667  0.87234807     0.04500
N431        N  0.05891204  0.10787849  0.87589115     0.67000
H432        H  0.04645808  0.15414449  0.83237982     0.15900
H433        H  0.45764980  0.12975203  0.90823331     0.15600
N434        N  0.44603361  0.17513426  0.86361191     0.74700
O435        O  0.06604148  0.08593265  0.85517093    -0.38800
O436        O  0.08093812  0.12195106  0.89191145    -0.38700
O437        O  0.42373917  0.16229176  0.84681156    -0.39400
O438        O  0.43951673  0.19709411  0.88454753    -0.39500
C439        C  0.01425141  0.36528579  0.62223230    -0.11800
C440        C  0.48923010  0.37489354  0.60927800     0.05200
C441        C  0.46533255  0.35158020  0.61370645    -0.07100
C442        C  0.46838840  0.32875721  0.64012410    -0.07800
C443        C  0.49477140  0.32871254  0.66245444    -0.02400
C444        C  0.01537375  0.34182153  0.64790222     0.04500
N445        N  0.04523621  0.32743230  0.65600365     0.67000
H446        H  0.03612668  0.37121949  0.60871007     0.15900
H447        H  0.45022609  0.31071287  0.64301486     0.15600
N448        N  0.43878499  0.34944674  0.59064154     0.74700
O449        O  0.05617763  0.30631289  0.63624418    -0.38800
O450        O  0.06359258  0.34078083  0.67735363    -0.38700
O451        O  0.43969794  0.32968417  0.56617253    -0.39400
O452        O  0.41215948  0.36014320  0.60030541    -0.39500
C453        C  0.46798676  0.36135368  0.88587232    -0.11800
C454        C  0.49563050  0.37900482  0.89304909     0.05200
C455        C  0.01928232  0.35715069  0.88855784    -0.07100
C456        C  0.01798302  0.33487452  0.86185651    -0.07800
C457        C  0.49670585  0.33034502  0.84311713    -0.02400
C458        C  0.46849540  0.33695700  0.86136440     0.04500
N459        N  0.44042356  0.31863973  0.85547244     0.67000
H460        H  0.44605717  0.36593743  0.89981567     0.15900
H461        H  0.03981506  0.32407781  0.85261632     0.15600
N462        N  0.04958922  0.36447333  0.90293904     0.74700
O463        O  0.43593972  0.29367411  0.87288129    -0.38800
O464        O  0.42376636  0.32382721  0.82875604    -0.38700
O465        O  0.06153729  0.34618117  0.92540502    -0.39400
O466        O  0.06752336  0.38301572  0.88636763    -0.39500
C467        C  0.49368952  0.90179717  0.42238724     0.43000
N468        N  0.01012055  0.93204343  0.46447890     0.01800
C469        C  0.41776158  0.53229901  0.06437926    -0.06000
H470        H  0.41831964  0.55767885  0.43201013     0.07300
C471        C  0.03774185  0.57649688  0.43821345    -0.06400
Co472      Co  0.45347295  0.95962191  0.99823686     0.74200
N473        N  0.43729386  0.51939296  0.46202157    -0.25600
Co474      Co  0.46299221  0.54178450  0.50034765     0.74100
C475        C  0.50868328  0.59049141  0.41916577     0.43100
N476        N  0.06821531  0.50508582  0.46753270     0.01500
N477        N  0.49193667  0.56309013  0.46278267     0.01600
N478        N  0.41066976  0.97469986  0.06054827    -0.46400
H479        H  0.44050601  0.91282017  0.43174345     0.07300
N480        N  0.43110449  0.98848430  0.46335099     0.01900
N481        N  0.48944070  0.56517745  0.04038078     0.01600
C482        C  0.00502199  0.59645502  0.07905471     0.43200
N483        N  0.06401855  0.97788347  0.46729473    -0.25000
C484        C  0.46057115  0.91361174  0.06129608    -0.05900
N485        N  0.02187514  0.91249999  0.44088309    -0.46100
N486        N  0.47893144  0.58576013  0.06365532    -0.46300
C487        C  0.99171827  0.89890799  0.08178463     0.43000
N488        N  0.42971492  0.98596172  0.03594495     0.01800
N489        N  0.06002952  0.97559412  0.04220755    -0.25000
N490        N  0.47651810  0.93400648  0.46417917    -0.25500
N491        N  0.06408558  0.50770241  0.04198357     0.01500
H492        H  0.08010763  0.93912030  0.07477520     0.07400
H493        H  0.05751807  0.58263077  0.06911243     0.07400
N494        N  0.43466377  0.52032964  0.03807827    -0.25600
N495        N  0.02420448  0.55990497  0.46411684    -0.25200
N496        N  0.00680976  0.92916486  0.04000646     0.01800
C497        C  0.40294551  0.00449268  0.42009818     0.43200
C498        C  0.08212782  0.96615032  0.44166052    -0.06400
N499        N  0.02031117  0.56247300  0.03816804    -0.25200
H500        H  0.06307662  0.57867773  0.43389847     0.07400
N501        N  0.41240408  0.97855452  0.43794145    -0.46400
H502        H  0.08435111  0.94135239  0.43561719     0.07400
C503        C  0.09248084  0.49438484  0.08601659     0.43100
C504        C  0.46536605  0.91607094  0.43815478    -0.05900
Co505      Co  0.03480328  0.95211504  0.00311389     0.73800
N506        N  0.08796122  0.51521061  0.44306326    -0.46100
C507        C  0.40200125  0.50505888  0.08049850     0.43300
N508        N  0.01745052  0.91031948  0.06483882    -0.47000
Co509      Co  0.04478948  0.53337791  0.50367133     0.73900
C510        C  0.03243491  0.58048141  0.06340179    -0.06400
C511        C  0.42065367  0.53255344  0.43619765    -0.06000
N512        N  0.47421547  0.93181386  0.03671516    -0.25500
N513        N  0.48236683  0.58140258  0.43689241    -0.46300
H514        H  0.41650189  0.55710907  0.07078301     0.07300
C515        C  0.07694710  0.96393813  0.06890106    -0.06400
Cl516      Cl  0.99842198  0.49800567  0.00190166    -0.49400
C517        C  0.09696948  0.99380584  0.42525697     0.43100
H518        H  0.43522543  0.91089035  0.06526613     0.07300
N519        N  0.08261143  0.51912766  0.06672684    -0.46100
N520        N  0.49962895  0.79672543  0.25395033    -0.36100
N521        N  0.50265093  0.74926729  0.19906842    -0.56700
N522        N  0.50821005  0.69953687  0.25168042    -0.36100
N523        N  0.49998234  0.74667629  0.30658472    -0.56700
C524        C  0.49334995  0.81529774  0.22606841     0.27500
C525        C  0.49391243  0.81399033  0.28278392     0.27500
C526        C  0.50423478  0.68197699  0.22269524     0.27500
C527        C  0.50151783  0.68068226  0.27926350     0.27500
C528        C  0.50318200  0.77561602  0.17901284     0.36100
C529        C  0.50911933  0.72464911  0.17787955     0.36100
C530        C  0.50304856  0.77194806  0.32770091     0.36100
C531        C  0.50538093  0.72080862  0.32645084     0.36100
C532        C  0.48393097  0.84496821  0.23736979    -0.21400
C533        C  0.48435611  0.84416695  0.27311185    -0.21400
C534        C  0.49543574  0.65147629  0.23205260    -0.21400
C535        C  0.49377180  0.65065699  0.26771234    -0.21400
C536        C  0.50961036  0.76761933  0.14477675    -0.22400
C537        C  0.51352925  0.73540678  0.14409224    -0.22400
C538        C  0.51006668  0.76204058  0.36125332    -0.22400
C539        C  0.51145136  0.72962278  0.36048114    -0.22400
C540        C  0.49687858  0.80672929  0.19069993    -0.17800
C541        C  0.49814816  0.80377494  0.31759659    -0.17800
C542        C  0.50353312  0.68927844  0.31467604    -0.17800
C543        C  0.50873619  0.69238897  0.18799229    -0.17800
H544        H  0.47759518  0.86522144  0.22153202     0.15100
H545        H  0.47834056  0.86366225  0.29003238     0.15100
H546        H  0.49053561  0.63181010  0.21496249     0.15100
H547        H  0.48746861  0.63025321  0.28335809     0.15100
H548        H  0.51127023  0.78334304  0.12255776     0.13400
H549        H  0.51861101  0.72146403  0.12121232     0.13400
H550        H  0.51360959  0.77663966  0.38397138     0.13400
H551        H  0.51631955  0.71429893  0.38246031     0.13400
H552        H  0.50861727  0.77400843  0.25342295     0.26700
H553        H  0.51648717  0.72259471  0.25263275     0.26700
N554        N  0.19901835  0.00040754  0.25195688    -0.36100
N555        N  0.24795955  0.99542020  0.19820186    -0.56700
N556        N  0.29681586  0.00118748  0.25113356    -0.36100
N557        N  0.24794293  0.00180284  0.30501851    -0.56700
C558        C  0.18128013  0.99139809  0.22449209     0.27500
C559        C  0.18131283  0.99526437  0.28079229     0.27500
C560        C  0.31481934  0.99386441  0.22315913     0.27500
C561        C  0.31467828  0.99566473  0.27970678     0.27500
C562        C  0.22194040  0.99839096  0.17783720     0.36100
C563        C  0.27346172  0.00012270  0.17734279     0.36100
C564        C  0.22232736  0.00804582  0.32506405     0.36100
C565        C  0.27378105  0.00764991  0.32476083     0.36100
C566        C  0.15176544  0.98081736  0.23592123    -0.21400
C567        C  0.15178406  0.98325924  0.27151910    -0.21400
C568        C  0.34469440  0.98393004  0.23405156    -0.21400
C569        C  0.34453290  0.98487551  0.26979484    -0.21400
C570        C  0.23092406  0.00439410  0.14374441    -0.22400
C571        C  0.26361193  0.00544677  0.14341254    -0.22400
C572        C  0.23187875  0.01759097  0.35787073    -0.22400
C573        C  0.26457402  0.01743605  0.35764976    -0.22400
C574        C  0.19025062  0.99420983  0.18928035    -0.17800
C575        C  0.19056288  0.00244512  0.31508330    -0.17800
C576        C  0.30545510  0.00195344  0.31431759    -0.17800
C577        C  0.30551745  0.99770441  0.18812174    -0.17800
H578        H  0.13216094  0.97239435  0.22021696     0.15100
H579        H  0.13217727  0.97711358  0.28857355     0.15100
H580        H  0.36464690  0.97691972  0.21799582     0.15100
H581        H  0.36431845  0.97875432  0.28655159     0.15100
H582        H  0.21554026  0.00744550  0.12140961     0.13400
H583        H  0.27840752  0.00937593  0.12072269     0.13400
H584        H  0.21686358  0.02354390  0.37979655     0.13400
H585        H  0.27981538  0.02328089  0.37938110     0.13400
H586        H  0.22118385  0.01117829  0.25088493     0.26700
H587        H  0.27435468  0.01133350  0.25062713     0.26700
C588        C  0.13336102  0.96516520  0.12006087    -0.11800
C589        C  0.11467557  0.99231045  0.11410283     0.05200
C590        C  0.12185896  0.52478504  0.13269061    -0.07100
C591        C  0.14591001  0.52627320  0.15775028    -0.07800
C592        C  0.16455885  0.99313283  0.16308143    -0.02400
C593        C  0.15811683  0.96543553  0.14441849     0.04500
N594        N  0.17645741  0.93745982  0.15029962     0.67000
H595        H  0.12915802  0.94374389  0.10548393     0.15900
H596        H  0.14906883  0.54775014  0.17263508     0.15600
N597        N  0.10278508  0.55228698  0.12696740     0.74700
O598        O  0.17152414  0.92102600  0.17725133    -0.38800
O599        O  0.20101542  0.93244043  0.13219053    -0.38700
O600        O  0.08102508  0.55885730  0.14842792    -0.39400
O601        O  0.11145847  0.07005873  0.11175952    -0.39500
C602        C  0.12517029  0.02417771  0.37871459    -0.11800
C603        C  0.12062988  0.99525120  0.39644866     0.05200
C604        C  0.13929029  0.96886155  0.38649606    -0.07100
C605        C  0.16162462  0.97184861  0.35976547    -0.07800
C606        C  0.16612316  0.00060159  0.34266672    -0.02400
C607        C  0.14770295  0.02692263  0.35189751     0.04500
N608        N  0.15220891  0.05655315  0.33457152     0.67000
H609        H  0.11126594  0.04475409  0.38573606     0.15900
H610        H  0.17604871  0.95162338  0.35263348     0.15600
N611        N  0.13735827  0.93915286  0.40402814     0.74700
O612        O  0.13935538  0.06121975  0.30534285    -0.38800
O613        O  0.16891487  0.57306968  0.34199458    -0.38700
O614        O  0.12872412  0.91522475  0.38701742    -0.39400
O615        O  0.16057003  0.43388133  0.43305666    -0.39500
C616        C  0.36526520  0.02693820  0.12146113    -0.11800
C617        C  0.37750625  0.99845572  0.10840117     0.05200
C618        C  0.36357134  0.47802950  0.12260037    -0.07100
C619        C  0.34032949  0.48048759  0.14862325    -0.07800
C620        C  0.33069662  0.99828300  0.16113444    -0.02400
C621        C  0.34229477  0.02703657  0.14775878     0.04500
N622        N  0.33087194  0.05656926  0.16057138     0.67000
H623        H  0.37328238  0.04944160  0.11126510     0.15900
H624        H  0.32932460  0.45921186  0.15888519     0.15600
N625        N  0.37158924  0.44728670  0.11011339     0.74700
O626        O  0.34595420  0.07023372  0.18456381    -0.38800
O627        O  0.31605477  0.58375652  0.14079084    -0.38700
O628        O  0.40215389  0.92855310  0.13102813    -0.39400
O629        O  0.35503820  0.43532355  0.08616272    -0.39500
C630        C  0.35084009  0.02837309  0.34330675    -0.11800
C631        C  0.33052525  0.00230245  0.34123593     0.05200
C632        C  0.33462133  0.97659763  0.36401324    -0.07100
C633        C  0.36065020  0.48148384  0.38669145    -0.07800
C634        C  0.37874148  0.00411889  0.39206297    -0.02400
C635        C  0.37513648  0.02937268  0.36810084     0.04500
N636        N  0.39709110  0.05514195  0.36675818     0.67000
H637        H  0.34820167  0.04777556  0.32502238     0.15900
H638        H  0.36370803  0.46038842  0.40241456     0.15600
N639        N  0.31551904  0.94880137  0.36059424     0.74700
O640        O  0.42132321  0.05289763  0.34745921    -0.38800
O641        O  0.38891603  0.58703661  0.38109128    -0.38700
O642        O  0.32240823  0.92873704  0.33759138    -0.39400
O643        O  0.29120032  0.45154406  0.37372022    -0.39500
C644        C  0.03558279  0.62957579  0.12097833    -0.11800
C645        C  0.50493356  0.62063678  0.10868818     0.05200
C646        C  0.47930269  0.64184600  0.11373882    -0.07100
C647        C  0.48138124  0.66522450  0.13928436    -0.07800
C648        C  0.50849937  0.66800303  0.16023156    -0.02400
C649        C  0.03813875  0.65240095  0.14704055     0.04500
N650        N  0.06898146  0.66042406  0.15992682     0.67000
H651        H  0.05732882  0.61883713  0.11170645     0.15900
H652        H  0.46156958  0.68130770  0.14295055     0.15600
N653        N  0.45120364  0.64056020  0.09290933     0.74700
O654        O  0.08180299  0.64287476  0.18253303    -0.38800
O655        O  0.08613106  0.67939955  0.14274931    -0.38700
O656        O  0.42627489  0.62839000  0.10556073    -0.39400
O657        O  0.44892689  0.65861953  0.06682128    -0.39500
C658        C  0.03693701  0.64473470  0.34477809    -0.11800
C659        C  0.50451957  0.66346121  0.34088263     0.05200
C660        C  0.47728623  0.65461827  0.35987837    -0.07100
C661        C  0.47936993  0.63064593  0.38484137    -0.07800
C662        C  0.50810579  0.61443336  0.39081031    -0.02400
C663        C  0.03787840  0.62041158  0.36958141     0.04500
N664        N  0.06483975  0.59983982  0.36985148     0.67000
H665        H  0.05708414  0.64820018  0.32750107     0.15900
H666        H  0.45814552  0.62470793  0.39956079     0.15600
N667        N  0.44704369  0.66880349  0.35311052     0.74700
O668        O  0.06474011  0.57598353  0.35027158    -0.38800
O669        O  0.09105251  0.60990528  0.38143276    -0.38700
O670        O  0.42771589  0.65480026  0.33333250    -0.39400
O671        O  0.43684279  0.69003063  0.37319279    -0.39500
C672        C  0.02359162  0.87397885  0.12819027    -0.11800
C673        C  0.48730191  0.87690339  0.10979657     0.05200
C674        C  0.46141194  0.85677885  0.11844949    -0.07100
C675        C  0.46467419  0.83475164  0.14562726    -0.07800
C676        C  0.49333718  0.83200659  0.16402000    -0.02400
C677        C  0.02874539  0.85142037  0.15414356     0.04500
N678        N  0.05956889  0.84903503  0.16961321     0.67000
H679        H  0.04308501  0.88954157  0.12108392     0.15900
H680        H  0.44513089  0.81886412  0.15159327     0.15600
N681        N  0.43267150  0.85638424  0.09858251     0.74700
O682        O  0.08067266  0.83270143  0.15472654    -0.38800
O683        O  0.06784387  0.86910507  0.19203646    -0.38700
O684        O  0.43133262  0.83915920  0.07191895    -0.39400
O685        O  0.40700349  0.86486901  0.11286901    -0.39500
C686        C  0.46823567  0.85757381  0.38944210    -0.11800
C687        C  0.49504287  0.87685835  0.39525261     0.05200
C688        C  0.02842314  0.86989053  0.37803994    -0.07100
C689        C  0.03011360  0.84594246  0.35316666    -0.07800
C690        C  0.49691742  0.82821524  0.34512513    -0.02400
C691        C  0.46911153  0.83327247  0.36474133     0.04500
N692        N  0.44170618  0.81377846  0.35971987     0.67000
H693        H  0.44664847  0.86100691  0.40440189     0.15900
H694        H  0.05253825  0.84132956  0.34012031     0.15600
N695        N  0.05651475  0.88766002  0.38498975     0.74700
O696        O  0.43799754  0.78941555  0.37834164    -0.38800
O697        O  0.42478558  0.81746165  0.33290283    -0.38700
O698        O  0.07782776  0.87561078  0.40397521    -0.39400
O699        O  0.06334337  0.91081665  0.36556594    -0.39500
C700        C  0.49731431  0.90189836  0.91972131     0.43000
N701        N  0.00847600  0.92968264  0.96424201     0.01800
C702        C  0.41703560  0.53124130  0.56257993    -0.06000
H703        H  0.41736801  0.56081450  0.93358529     0.07300
C704        C  0.03580893  0.57581068  0.93546120    -0.06400
Co705      Co  0.45223009  0.96046720  0.50167931     0.74200
N706        N  0.43673639  0.52210788  0.96260539    -0.25600
Co707      Co  0.46291685  0.54359262  0.00146490     0.74100
C708        C  0.51018192  0.59282833  0.92185998     0.43100
N709        N  0.06666671  0.50501222  0.96615937     0.01500
N710        N  0.49251607  0.56490663  0.96456138     0.01600
N711        N  0.41036573  0.97755587  0.56467752    -0.46400
H712        H  0.44394075  0.91321948  0.92705316     0.07300
N713        N  0.43342176  0.98852238  0.95998035     0.01900
N714        N  0.48943377  0.56393488  0.53890374     0.01600
C715        C  0.00452195  0.59623237  0.57884710     0.43200
N716        N  0.06205251  0.97602260  0.96612472    -0.25000
C717        C  0.46199539  0.91431576  0.56451315    -0.05900
N718        N  0.01984467  0.91060872  0.93996626    -0.46100
N719        N  0.47871728  0.58349876  0.56311863    -0.46300
C720        C  0.98942822  0.90251987  0.58201058     0.43000
N721        N  0.42943700  0.98776509  0.53947665     0.01800
N722        N  0.06081473  0.97835519  0.54336305    -0.25000
N723        N  0.47896153  0.93376340  0.96120300    -0.25500
N724        N  0.06410298  0.50617940  0.54328340     0.01500
H725        H  0.08081152  0.94265921  0.57720364     0.07400
H726        H  0.05728094  0.58309971  0.57037861     0.07400
N727        N  0.43490968  0.51889077  0.53727070    -0.25600
N728        N  0.02283887  0.55996461  0.96232964    -0.25200
N729        N  0.00658162  0.93216468  0.54046591     0.01800
C730        C  0.40528734  0.00613525  0.91745991     0.43200
C731        C  0.07992146  0.96493093  0.93992040    -0.06400
N732        N  0.02065192  0.56126381  0.53964655    -0.25200
H733        H  0.06104173  0.57766953  0.93032849     0.07400
N734        N  0.41474129  0.97952386  0.93412800    -0.46400
H735        H  0.08238239  0.94026241  0.93338445     0.07400
C736        C  0.09159293  0.49172101  0.58744288     0.43100
C737        C  0.46858956  0.91624293  0.93448082    -0.05900
Co738      Co  0.03586611  0.95455357  0.50400141     0.73800
N739        N  0.08590769  0.51477144  0.94106999    -0.46100
C740        C  0.40119631  0.50415937  0.57875885     0.43300
N741        N  0.01600152  0.91359013  0.56622129    -0.47000
Co742      Co  0.04396257  0.53407991  0.00215195     0.73900
C743        C  0.03230367  0.57997156  0.56456470    -0.06400
C744        C  0.41956902  0.53562783  0.93730845    -0.06000
N745        N  0.47448093  0.93317277  0.53979283    -0.25500
N746        N  0.48349469  0.58374924  0.93890512    -0.46300
H747        H  0.41468618  0.55619058  0.56795093     0.07300
C748        C  0.07756384  0.96731787  0.57059013    -0.06400
Cl749      Cl  0.99930906  0.49729798  0.50177687    -0.49400
C750        C  0.09419999  0.99308730  0.92387594     0.43100
H751        H  0.43683180  0.91103259  0.56924212     0.07300
N752        N  0.08218430  0.51698016  0.56869548    -0.46100
N753        N  0.50640184  0.79560582  0.75144636    -0.36100
N754        N  0.50559961  0.74646307  0.69819113    -0.56700
N755        N  0.50918148  0.69815946  0.75217316    -0.36100
N756        N  0.50519478  0.74709014  0.80551602    -0.56700
C757        C  0.49887229  0.81301000  0.72305329     0.27500
C758        C  0.49945291  0.81326741  0.77969451     0.27500
C759        C  0.50406925  0.67980367  0.72400643     0.27500
C760        C  0.50331935  0.68025287  0.78069004     0.27500
C761        C  0.50815097  0.77217256  0.67738609     0.36100
C762        C  0.51039857  0.72097678  0.67775300     0.36100
C763        C  0.50991507  0.77281855  0.82552852     0.36100
C764        C  0.51074817  0.72169010  0.82600561     0.36100
C765        C  0.48753186  0.84231709  0.73339468    -0.21400
C766        C  0.48790836  0.84247449  0.76913979    -0.21400
C767        C  0.49538531  0.64967045  0.73478975    -0.21400
C768        C  0.49484778  0.64997213  0.77054953    -0.21400
C769        C  0.51420011  0.76297598  0.64345174    -0.22400
C770        C  0.51565458  0.73054649  0.64368943    -0.22400
C771        C  0.51823517  0.76375569  0.85898892    -0.22400
C772        C  0.51872155  0.73130789  0.85930970    -0.22400
C773        C  0.50297449  0.80369978  0.68804797    -0.17800
C774        C  0.50442923  0.80425790  0.81470536    -0.17800
C775        C  0.50699571  0.68994165  0.81561584    -0.17800
C776        C  0.50799074  0.68913347  0.68886493    -0.17800
H777        H  0.47980428  0.86164750  0.71691337     0.15100
H778        H  0.48052781  0.86191688  0.78548467     0.15100
H779        H  0.49002773  0.62949965  0.71859596     0.15100
H780        H  0.48905362  0.63007197  0.78718923     0.15100
H781        H  0.51692646  0.77804524  0.62081335     0.13400
H782        H  0.51970783  0.71569705  0.62126197     0.13400
H783        H  0.52303099  0.77893435  0.88096086     0.13400
H784        H  0.52407765  0.71649139  0.88156995     0.13400
H785        H  0.51713033  0.77357627  0.75152718     0.26700
H786        H  0.51774599  0.72108385  0.75201093     0.26700
N787        N  0.19810780  0.00858841  0.75339728    -0.36100
N788        N  0.24730976  0.00735453  0.69986252    -0.56700
N789        N  0.29580362  0.01114082  0.75312723    -0.36100
N790        N  0.24675215  0.00819230  0.80673259    -0.56700
C791        C  0.18067538  0.00036743  0.72540134     0.27500
C792        C  0.18037409  0.00191203  0.78181720     0.27500
C793        C  0.31372624  0.00438508  0.72491809     0.27500
C794        C  0.31328699  0.00358618  0.78140399     0.27500
C795        C  0.22136318  0.01051427  0.67947911     0.36100
C796        C  0.27280540  0.01321596  0.67939306     0.36100
C797        C  0.22100723  0.01322079  0.82696370     0.36100
C798        C  0.27241806  0.01352051  0.82688686     0.36100
C799        C  0.15129168  0.98882480  0.73611886    -0.21400
C800        C  0.15107807  0.98985786  0.77177859    -0.21400
C801        C  0.34311645  0.99280020  0.73537948    -0.21400
C802        C  0.34278357  0.99216263  0.77109390    -0.21400
C803        C  0.23038206  0.01806812  0.64575736    -0.22400
C804        C  0.26306429  0.01979489  0.64570222    -0.22400
C805        C  0.23030610  0.02145867  0.86029535    -0.22400
C806        C  0.26301193  0.02176463  0.86021234    -0.22400
C807        C  0.18985053  0.00448568  0.69039609    -0.17800
C808        C  0.18940610  0.00762144  0.81649100    -0.17800
C809        C  0.30409918  0.00852397  0.81623527    -0.17800
C810        C  0.30472727  0.00974030  0.69007622    -0.17800
H811        H  0.13191009  0.98066505  0.71992582     0.15100
H812        H  0.13149519  0.98267337  0.78837193     0.15100
H813        H  0.36282084  0.98563445  0.71903651     0.15100
H814        H  0.36217458  0.98443537  0.78760269     0.15100
H815        H  0.21504026  0.02148691  0.62345004     0.13400
H816        H  0.27796430  0.02470324  0.62331862     0.13400
H817        H  0.21512474  0.02623751  0.88243877     0.13400
H818        H  0.27813193  0.02682493  0.88228392     0.13400
H819        H  0.22013150  0.01967512  0.75306519     0.26700
H820        H  0.27368677  0.02208750  0.75310809     0.26700
C821        C  0.13525201  0.97171658  0.62106544    -0.11800
C822        C  0.11474247  0.99750313  0.61530206     0.05200
C823        C  0.12086994  0.52085731  0.63458482    -0.07100
C824        C  0.14604453  0.52255897  0.65810064    -0.07800
C825        C  0.16467684  0.00190973  0.66380391    -0.02400
C826        C  0.16013260  0.97379797  0.64516417     0.04500
N827        N  0.18053924  0.94723659  0.65082612     0.67000
H828        H  0.13241055  0.95009755  0.60642528     0.15900
H829        H  0.14910396  0.54367266  0.67362880     0.15600
N830        N  0.09962134  0.54714569  0.63220186     0.74700
O831        O  0.17665898  0.93014224  0.67748216    -0.38800
O832        O  0.20565272  0.94444491  0.63303101    -0.38700
O833        O  0.07854837  0.55054077  0.65533167    -0.39400
O834        O  0.10697168  0.07523548  0.61314905    -0.39500
C835        C  0.12283980  0.02559400  0.87976344    -0.11800
C836        C  0.11796788  0.99572684  0.89536329     0.05200
C837        C  0.13666309  0.96989455  0.88392439    -0.07100
C838        C  0.15994627  0.97452351  0.85848051    -0.07800
C839        C  0.16484699  0.00424349  0.84366853    -0.02400
C840        C  0.14592105  0.02987190  0.85384335     0.04500
N841        N  0.15013121  0.06022916  0.83802829     0.67000
H842        H  0.10872461  0.04573555  0.88772720     0.15900
H843        H  0.17439189  0.95470164  0.85014272     0.15600
N844        N  0.13307775  0.93882380  0.89785722     0.74700
O845        O  0.13701243  0.06604334  0.80918540    -0.38800
O846        O  0.17897342  0.57186433  0.85732836    -0.38700
O847        O  0.12330671  0.91724845  0.87801480    -0.39400
O848        O  0.14259277  0.42064228  0.91577189    -0.39500
C849        C  0.36916441  0.03331426  0.62602828    -0.11800
C850        C  0.37712760  0.00402949  0.61115898     0.05200
C851        C  0.35697080  0.47943233  0.61494084    -0.07100
C852        C  0.33429755  0.48225048  0.64143422    -0.07800
C853        C  0.32975311  0.00831204  0.66304776    -0.02400
C854        C  0.34589984  0.03559201  0.65187002     0.04500
N855        N  0.33897189  0.06579284  0.66649972     0.67000
H856        H  0.38093146  0.05481780  0.61780944     0.15900
H857        H  0.31847535  0.46258826  0.64693360     0.15600
N858        N  0.35775101  0.45087554  0.59529038     0.74700
O859        O  0.35594938  0.07588766  0.69113156    -0.38800
O860        O  0.33493372  0.58762938  0.65782812    -0.38700
O861        O  0.38868145  0.92936394  0.63069837    -0.39400
O862        O  0.33812557  0.44728463  0.57078612    -0.39500
C863        C  0.35017009  0.03368155  0.84493479    -0.11800
C864        C  0.32933245  0.00803016  0.84287928     0.05200
C865        C  0.33381260  0.98155934  0.86446233    -0.07100
C866        C  0.36287254  0.48210257  0.88425094    -0.07800
C867        C  0.37990675  0.00713989  0.89080423    -0.02400
C868        C  0.37556206  0.03341277  0.86835338     0.04500
N869        N  0.39763742  0.05910268  0.86718561     0.67000
H870        H  0.34714745  0.05369859  0.82754203     0.15900
H871        H  0.36863512  0.46032616  0.89776745     0.15600
N872        N  0.31377149  0.95439937  0.86130747     0.74700
O873        O  0.42104965  0.05750947  0.84663892    -0.38800
O874        O  0.37399917  0.58951319  0.89394345    -0.38700
O875        O  0.31836979  0.93518023  0.83680313    -0.39400
O876        O  0.29804579  0.44491655  0.86714312    -0.39500
C877        C  0.03098938  0.62381652  0.62782181    -0.11800
C878        C  0.50424264  0.61744824  0.60947107     0.05200
C879        C  0.47636686  0.63381807  0.61983598    -0.07100
C880        C  0.47817392  0.65718389  0.64551261    -0.07800
C881        C  0.50710604  0.66416293  0.66183978    -0.02400
C882        C  0.03248034  0.64710566  0.65345398     0.04500
N883        N  0.05982376  0.64836938  0.67552070     0.67000
H884        H  0.05063203  0.60738505  0.62562185     0.15900
H885        H  0.45679045  0.66981417  0.65300460     0.15600
N886        N  0.44596432  0.62698002  0.60503032     0.74700
O887        O  0.06098568  0.63062850  0.70196408    -0.38800
O888        O  0.08531729  0.66015955  0.66383573    -0.38700
O889        O  0.42773952  0.60778850  0.62050427    -0.39400
O890        O  0.43440442  0.64569413  0.58273795    -0.39500
C891        C  0.03273566  0.64557066  0.84301485    -0.11800
C892        C  0.50768390  0.66508560  0.84283037     0.05200
C893        C  0.48058586  0.65793616  0.86286885    -0.07100
C894        C  0.48216588  0.63429180  0.88823163    -0.07800
C895        C  0.51031275  0.61698890  0.89379719    -0.02400
C896        C  0.03494633  0.62116756  0.86767294     0.04500
N897        N  0.06414782  0.60397824  0.87004136     0.67000
H898        H  0.05351132  0.65186487  0.82769626     0.15900
H899        H  0.46101816  0.62944533  0.90355273     0.15600
N900        N  0.45097134  0.67365250  0.85690880     0.74700
O901        O  0.06742965  0.57918240  0.85226648    -0.38800
O902        O  0.08863194  0.61759523  0.88171585    -0.38700
O903        O  0.43040883  0.66063978  0.83780549    -0.39400
O904        O  0.44251684  0.69560824  0.87700792    -0.39500
C905        C  0.01809025  0.87788371  0.63124983    -0.11800
C906        C  0.49127198  0.87539139  0.60930408     0.05200
C907        C  0.46549024  0.85558300  0.61897595    -0.07100
C908        C  0.46982351  0.83244454  0.64473508    -0.07800
C909        C  0.49944982  0.82830889  0.66077713    -0.02400
C910        C  0.02182395  0.85493987  0.65718698     0.04500
N911        N  0.05148333  0.85292847  0.67520395     0.67000
H912        H  0.03766911  0.89396081  0.62610436     0.15900
H913        H  0.45004732  0.81729043  0.65198465     0.15600
N914        N  0.43527254  0.85732146  0.60210708     0.74700
O915        O  0.07452260  0.83884356  0.66095846    -0.38800
O916        O  0.05688387  0.87156260  0.70004304    -0.38700
O917        O  0.42980716  0.83921119  0.57681975    -0.39400
O918        O  0.41204267  0.86913435  0.61831850    -0.39500
C919        C  0.47259027  0.85818206  0.88536564    -0.11800
C920        C  0.49930826  0.87725568  0.89230450     0.05200
C921        C  0.02473697  0.86825887  0.87656674    -0.07100
C922        C  0.02576506  0.84427855  0.85170499    -0.07800
C923        C  0.50236918  0.82911440  0.84168132    -0.02400
C924        C  0.47408932  0.83406558  0.86049929     0.04500
N925        N  0.44687111  0.81453260  0.85460008     0.67000
H926        H  0.45063823  0.86151098  0.89970813     0.15900
H927        H  0.04758595  0.84019829  0.83728712     0.15600
N928        N  0.05264418  0.88683054  0.88167337     0.74700
O929        O  0.44385049  0.78903227  0.87143350    -0.38800
O930        O  0.42961506  0.81945884  0.82828258    -0.38700
O931        O  0.07537619  0.87531908  0.89902862    -0.39400
O932        O  0.05774186  0.91006061  0.86172955    -0.39500
C933        C  0.99570556  0.40082095  0.42204837     0.43000
N934        N  0.50947226  0.42968457  0.46466919     0.01800
C935        C  0.91476740  0.02721120  0.06547034    -0.06000
H936        H  0.91413591  0.05824787  0.43386620     0.07300
C937        C  0.53261394  0.07898260  0.44042404    -0.06400
Co938      Co  0.95258702  0.46212607  0.00087276     0.74200
N939        N  0.93518164  0.02004520  0.46228113    -0.25600
Co940      Co  0.96054375  0.04261745  0.50094421     0.74100
C941        C  0.00563717  0.09062134  0.41908231     0.43100
N942        N  0.56464533  0.00782980  0.46693590     0.01500
N943        N  0.98922881  0.06447372  0.46363493     0.01600
N944        N  0.90869150  0.48131979  0.06029875    -0.46400
H945        H  0.94272689  0.41404621  0.42918887     0.07300
N946        N  0.93408400  0.48958414  0.45980411     0.01900
N947        N  0.98470852  0.06276620  0.03979679     0.01600
C948        C  0.50136446  0.09222531  0.08420947     0.43200
N949        N  0.56484946  0.47419708  0.46675702    -0.25000
C950        C  0.95941916  0.41932242  0.06645903    -0.05900
N951        N  0.52021284  0.41016327  0.44043944    -0.46100
N952        N  0.97365109  0.08326641  0.06286723    -0.46300
C953        C  0.48615627  0.39823142  0.07819060     0.43000
N954        N  0.92952267  0.49083303  0.03660204     0.01800
N955        N  0.56060605  0.47512589  0.04394782    -0.25000
N956        N  0.97839643  0.43383501  0.46298075    -0.25500
N957        N  0.56278812  0.00626272  0.04409628     0.01500
H958        H  0.57945820  0.43860288  0.07762299     0.07400
H959        H  0.55439407  0.08054159  0.07445208     0.07400
N960        N  0.93192957  0.01554379  0.03917877    -0.25600
N961        N  0.51976629  0.06165955  0.46610856    -0.25200
N962        N  0.50480758  0.43029675  0.03972450     0.01800
C963        C  0.90616441  0.50727033  0.41701720     0.43200
C964        C  0.58347631  0.46203217  0.44172968    -0.06400
N965        N  0.51818732  0.06015090  0.04221695    -0.25200
H966        H  0.55785271  0.08173362  0.43595272     0.07400
N967        N  0.91506284  0.48065909  0.43419580    -0.46400
H968        H  0.58591945  0.43713129  0.43629253     0.07400
C969        C  0.58948172  0.99150966  0.08876823     0.43100
C970        C  0.96746844  0.41627760  0.43658658    -0.05900
Co971      Co  0.53514608  0.45265918  0.00401454     0.73800
N972        N  0.58312751  0.01843254  0.44151904    -0.46100
C973        C  0.90054445  0.99960155  0.08240306     0.43300
N974        N  0.51331466  0.40960279  0.06391115    -0.47000
Co975      Co  0.54179487  0.03501615  0.50449231     0.73900
C976        C  0.52946176  0.07765561  0.06836380    -0.06400
C977        C  0.91747511  0.03313736  0.43723730    -0.06000
N978        N  0.97332491  0.43601550  0.04084659    -0.25500
N979        N  0.97938173  0.08157950  0.43691581    -0.46300
H980        H  0.91206199  0.05204372  0.07127805     0.07300
C981        C  0.57686829  0.46338540  0.07121471    -0.06400
Cl982      Cl  0.49831782  0.99675883  0.00219627    -0.49400
C983        C  0.59890864  0.48945934  0.42539351     0.43100
H984        H  0.93401038  0.41746673  0.07027493     0.07300
N985        N  0.58015792  0.01689723  0.07018207    -0.46100
N986        N  0.99256179  0.29510900  0.25384732    -0.36100
N987        N  0.99570257  0.24816250  0.19816958    -0.56700
N988        N  0.00345744  0.19839779  0.25034190    -0.36100
N989        N  0.99805651  0.24529938  0.30613581    -0.56700
C990        C  0.99048477  0.31478096  0.22606980     0.27500
C991        C  0.99365260  0.31325162  0.28276625     0.27500
C992        C  0.99967467  0.18057296  0.22145650     0.27500
C993        C  0.99884428  0.17911046  0.27811521     0.27500
C994        C  0.99308808  0.27441022  0.17818602     0.36100
C995        C  0.99925711  0.22346160  0.17632827     0.36100
C996        C  0.00011280  0.27033390  0.32767889     0.36100
C997        C  0.00200019  0.21916980  0.32588198     0.36100
C998        C  0.98965447  0.34581996  0.23755928    -0.21400
C999        C  0.99161892  0.34485953  0.27320221    -0.21400
C1000       C  0.99342930  0.14952816  0.23107981    -0.21400
C1001       C  0.99288198  0.14861563  0.26672623    -0.21400
C1002       C  0.99454840  0.26623572  0.14333354    -0.22400
C1003       C  0.99876036  0.23410293  0.14216137    -0.22400
C1004       C  0.00532525  0.25999767  0.36148142    -0.22400
C1005       C  0.00645213  0.22758667  0.36035718    -0.22400
C1006       C  0.99016850  0.30582747  0.19054043    -0.17800
C1007       C  0.99702405  0.30241034  0.31756954    -0.17800
C1008       C  0.00054910  0.18777455  0.31357970    -0.17800
C1009       C  0.00139317  0.19126710  0.18652158    -0.17800
H1010       H  0.98824017  0.36709831  0.22190179     0.15100
H1011       H  0.99189985  0.36526903  0.29007384     0.15100
H1012       H  0.98918440  0.12957575  0.21418157     0.15100
H1013       H  0.98831465  0.12781435  0.28245956     0.15100
H1014       H  0.99310124  0.28182871  0.12099500     0.13400
H1015       H  0.00094253  0.22020452  0.11872182     0.13400
H1016       H  0.00800089  0.27429816  0.38456970     0.13400
H1017       H  0.01009702  0.21202001  0.38241648     0.13400
H1018       H  0.99335380  0.27106959  0.25303752     0.26700
H1019       H  0.00988179  0.22182573  0.25104579     0.26700
N1020       N  0.70036769  0.50279839  0.25294904    -0.36100
N1021       N  0.74807975  0.50638112  0.19799466    -0.56700
N1022       N  0.79768512  0.51273213  0.24985031    -0.36100
N1023       N  0.75011584  0.50479955  0.30469515    -0.56700
C1024       C  0.68304096  0.49375895  0.22518609     0.27500
C1025       C  0.68397229  0.49397784  0.28163393     0.27500
C1026       C  0.81527648  0.50786587  0.22091477     0.27500
C1027       C  0.81640336  0.50577925  0.27735772     0.27500
C1028       C  0.72137451  0.50899576  0.17871024     0.36100
C1029       C  0.77247942  0.51508532  0.17716522     0.36100
C1030       C  0.72467728  0.50702545  0.32601753     0.36100
C1031       C  0.77592318  0.51082487  0.32438099     0.36100
C1032       C  0.65514648  0.47929242  0.23632049    -0.21400
C1033       C  0.65566889  0.47956301  0.27202849    -0.21400
C1034       C  0.84567604  0.49813022  0.23014295    -0.21400
C1035       C  0.84642281  0.49692570  0.26583602    -0.21400
C1036       C  0.72880333  0.51920505  0.14536860    -0.22400
C1037       C  0.76128479  0.52306369  0.14438118    -0.22400
C1038       C  0.73436204  0.51410640  0.35954046    -0.22400
C1039       C  0.76693533  0.51652125  0.35850319    -0.22400
C1040       C  0.69075387  0.50001366  0.19014932    -0.17800
C1041       C  0.69317528  0.50005323  0.31616995    -0.17800
C1042       C  0.80759377  0.50856050  0.31259608    -0.17800
C1043       C  0.80489044  0.51298989  0.18647944    -0.17800
H1044       H  0.63620984  0.46982377  0.22036814     0.15100
H1045       H  0.63723137  0.47030560  0.28894057     0.15100
H1046       H  0.86531956  0.49254486  0.21296801     0.15100
H1047       H  0.86676596  0.49026994  0.28151337     0.15100
H1048       H  0.71257440  0.52297423  0.12389269     0.13400
H1049       H  0.77514320  0.53038385  0.12198377     0.13400
H1050       H  0.71958830  0.51658969  0.38246436     0.13400
H1051       H  0.78228953  0.52128723  0.38046311     0.13400
H1052       H  0.72119334  0.51599661  0.25234149     0.26700
H1053       H  0.77474453  0.52182398  0.25082869     0.26700
C1054       C  0.63730676  0.46815916  0.11905075    -0.11800
C1055       C  0.61452331  0.49241070  0.11643180     0.05200
C1056       C  0.61981038  0.02104915  0.13505505    -0.07100
C1057       C  0.64522221  0.02251740  0.15832344    -0.07800
C1058       C  0.66495977  0.49708073  0.16428068    -0.02400
C1059       C  0.66254625  0.47044089  0.14273993     0.04500
N1060       N  0.68565298  0.44570506  0.14480474     0.67000
H1061       H  0.63603694  0.44783091  0.10208097     0.15900
H1062       H  0.64938212  0.04406998  0.17278598     0.15600
N1063       N  0.59980316  0.04820547  0.13157403     0.74700
O1064       O  0.68497592  0.42662369  0.17011722    -0.38800
O1065       O  0.70987281  0.44661756  0.12534714    -0.38700
O1066       O  0.57881650  0.05325661  0.15442554    -0.39400
O1067       O  0.60078456  0.56877275  0.12141197    -0.39500
C1068       C  0.62897999  0.52059063  0.38131086    -0.11800
C1069       C  0.62296952  0.49099395  0.39701077     0.05200
C1070       C  0.64069702  0.46443794  0.38566347    -0.07100
C1071       C  0.66311935  0.46785078  0.35898882    -0.07800
C1072       C  0.66875319  0.49727637  0.34366471    -0.02400
C1073       C  0.65177123  0.52386098  0.35496772     0.04500
N1074       N  0.65826610  0.55439751  0.34054671     0.67000
H1075       H  0.61607418  0.54141765  0.38961085     0.15900
H1076       H  0.67673090  0.44748314  0.35059157     0.15600
N1077       N  0.63791174  0.43419873  0.40190865     0.74700
O1078       O  0.64745270  0.56161752  0.31095288    -0.38800
O1079       O  0.66376666  0.07524253  0.33662292    -0.38700
O1080       O  0.62563891  0.41186821  0.38493669    -0.39400
O1081       O  0.65139402  0.93572503  0.43147019    -0.39500
C1082       C  0.87368452  0.53456951  0.12686703    -0.11800
C1083       C  0.87452653  0.50829215  0.10473823     0.05200
C1084       C  0.85757343  0.97389082  0.11988834    -0.07100
C1085       C  0.83410583  0.97689255  0.14557675    -0.07800
C1086       C  0.82890994  0.51214274  0.15828536    -0.02400
C1087       C  0.85114251  0.53667280  0.15349879     0.04500
N1088       N  0.85080268  0.56407767  0.17505657     0.67000
H1089       H  0.89069694  0.55360752  0.12370341     0.15900
H1090       H  0.81859569  0.95702935  0.15125662     0.15600
N1091       N  0.86057717  0.94430639  0.10249456     0.74700
O1092       O  0.86983670  0.56571206  0.20036077    -0.38800
O1093       O  0.83705826  0.08325833  0.16242354    -0.38700
O1094       O  0.86278890  0.43110667  0.09686677    -0.39400
O1095       O  0.84317869  0.93876827  0.07649080    -0.39500
C1096       C  0.84969453  0.53577896  0.34574937    -0.11800
C1097       C  0.83311544  0.50798194  0.33881985     0.05200
C1098       C  0.84115561  0.47990679  0.35621902    -0.07100
C1099       C  0.85868070  0.98033698  0.38745247    -0.07800
C1100       C  0.88186385  0.50820659  0.38900708    -0.02400
C1101       C  0.87417306  0.53618798  0.37027299     0.04500
N1102       N  0.89148097  0.56496796  0.37444073     0.67000
H1103       H  0.84383145  0.55723902  0.33162718     0.15900
H1104       H  0.86337787  0.95893219  0.40214045     0.15600
N1105       N  0.82559157  0.45088590  0.34779026     0.74700
O1106       O  0.91554611  0.56998030  0.35548838    -0.38800
O1107       O  0.87876029  0.08757545  0.38718371    -0.38700
O1108       O  0.83501144  0.43518764  0.32190988    -0.39400
O1109       O  0.78961713  0.94791575  0.37222829    -0.39500
C1110       C  0.53007335  0.12639490  0.12671284    -0.11800
C1111       C  0.99885572  0.11943938  0.10724084     0.05200
C1112       C  0.97222546  0.13919967  0.11327995    -0.07100
C1113       C  0.97363168  0.16234714  0.13914370    -0.07800
C1114       C  0.00131901  0.16680139  0.15882957    -0.02400
C1115       C  0.53126938  0.15010601  0.15194523     0.04500
N1116       N  0.56147712  0.15938888  0.16560926     0.67000
H1117       H  0.55231856  0.11595916  0.11844602     0.15900
H1118       H  0.95303541  0.17722528  0.14370502     0.15600
N1119       N  0.94400784  0.13711638  0.09270917     0.74700
O1120       O  0.57441931  0.14255874  0.18879241    -0.38800
O1121       O  0.57826333  0.17893265  0.14878094    -0.38700
O1122       O  0.91969185  0.12379526  0.10537832    -0.39400
O1123       O  0.94071421  0.15569204  0.06719081    -0.39500
C1124       C  0.53005947  0.14970841  0.34957339    -0.11800
C1125       C  0.00132830  0.16192898  0.33959562     0.05200
C1126       C  0.97390303  0.15291344  0.35814957    -0.07100
C1127       C  0.97595085  0.12922663  0.38336012    -0.07800
C1128       C  0.00484300  0.11353849  0.38992321    -0.02400
C1129       C  0.53199445  0.12530062  0.37415836     0.04500
N1130       N  0.56065721  0.10721002  0.37555678     0.67000
H1131       H  0.55073972  0.15538191  0.33380993     0.15900
H1132       H  0.95465910  0.12325798  0.39795276     0.15600
N1133       N  0.94361914  0.16683104  0.35093071     0.74700
O1134       O  0.56401013  0.08458561  0.35459689    -0.38800
O1135       O  0.58508351  0.11909255  0.38945097    -0.38700
O1136       O  0.92458098  0.15251600  0.33108872    -0.39400
O1137       O  0.93300836  0.18796982  0.37087412    -0.39500
C1138       C  0.50963662  0.37649213  0.13196318    -0.11800
C1139       C  0.98524639  0.38024412  0.11361353     0.05200
C1140       C  0.95701123  0.36752136  0.12856981    -0.07100
C1141       C  0.95908003  0.34340123  0.15365508    -0.07800
C1142       C  0.98866775  0.33160425  0.16424130    -0.02400
C1143       C  0.51164938  0.35429624  0.15889656     0.04500
N1144       N  0.53676174  0.35726253  0.18370669     0.67000
H1145       H  0.52730667  0.39515298  0.13055013     0.15900
H1146       H  0.93744826  0.33367833  0.16482837     0.15600
N1147       N  0.92606527  0.37839620  0.11893196     0.74700
O1148       O  0.56365262  0.34550645  0.17687252    -0.38800
O1149       O  0.53469543  0.37818923  0.20689349    -0.38700
O1150       O  0.90994952  0.36242684  0.09759696    -0.39400
O1151       O  0.91191741  0.39775455  0.13847446    -0.39500
C1152       C  0.96866352  0.35874263  0.38746724    -0.11800
C1153       C  0.99672167  0.37553969  0.39525706     0.05200
C1154       C  0.52313030  0.36897927  0.37550731    -0.07100
C1155       C  0.52260496  0.34618404  0.34930050    -0.07800
C1156       C  0.99702084  0.32667017  0.34535105    -0.02400
C1157       C  0.96871689  0.33444928  0.36282976     0.04500
N1158       N  0.93989056  0.31774890  0.35559497     0.67000
H1159       H  0.94657784  0.36418724  0.40070820     0.15900
H1160       H  0.54430007  0.34086479  0.33515957     0.15600
N1161       N  0.55249540  0.38456330  0.38262809     0.74700
O1162       O  0.93348573  0.29287865  0.37244260    -0.38800
O1163       O  0.92447674  0.32407761  0.32828187    -0.38700
O1164       O  0.57334636  0.37031635  0.40036213    -0.39400
O1165       O  0.56051902  0.40798917  0.36417828    -0.39500
C1166       C  0.99167265  0.39759846  0.92699542     0.43000
N1167       N  0.50871811  0.43208440  0.96388882     0.01800
C1168       C  0.91612596  0.02960942  0.56457171    -0.06000
H1169       H  0.91250808  0.05277336  0.93219330     0.07300
C1170       C  0.53436882  0.07807175  0.94058804    -0.06400
Co1171     Co  0.95352955  0.46126264  0.49912153     0.74200
N1172       N  0.93309052  0.01589774  0.96347148    -0.25600
Co1173     Co  0.95860503  0.03945856  0.00160603     0.74100
C1174       C  0.00295303  0.08994110  0.92070764     0.43100
N1175       N  0.56726808  0.00703305  0.96824484     0.01500
N1176       N  0.98678941  0.06167132  0.96392705     0.01600
N1177       N  0.90943490  0.47926715  0.55948005    -0.46400
H1178       H  0.93927384  0.41237189  0.93529166     0.07300
N1179       N  0.93291400  0.48942806  0.96095781     0.01900
N1180       N  0.98638466  0.06523614  0.53965641     0.01600
C1181       C  0.50167511  0.09436055  0.58339312     0.43200
N1182       N  0.56461151  0.47537173  0.96790399    -0.25000
C1183       C  0.95998937  0.41820928  0.56489596    -0.05900
N1184       N  0.51984330  0.41304725  0.93945623    -0.46100
N1185       N  0.97497389  0.08486246  0.56338779    -0.46300
C1186       C  0.48904664  0.39850034  0.58057667     0.43000
N1187       N  0.92998724  0.48920145  0.53560447     0.01800
N1188       N  0.56209933  0.47540805  0.54269496    -0.25000
N1189       N  0.97648783  0.43357650  0.96559105    -0.25500
N1190       N  0.56290533  0.00764919  0.54288126     0.01500
H1191       H  0.58262070  0.44012302  0.57680658     0.07400
H1192       H  0.55447754  0.08214331  0.57363248     0.07400
N1193       N  0.93318032  0.01860228  0.53779379    -0.25600
N1194       N  0.52156906  0.06083575  0.96645022    -0.25200
N1195       N  0.50666438  0.42978383  0.54066796     0.01800
C1196       C  0.90522790  0.50567479  0.91737235     0.43200
C1197       C  0.58294378  0.46333165  0.94254077    -0.06400
N1198       N  0.51781566  0.06160908  0.54182389    -0.25200
H1199       H  0.55958187  0.08081722  0.93585826     0.07400
N1200       N  0.91407593  0.47964890  0.93556148    -0.46400
H1201       H  0.58480390  0.43852720  0.93635284     0.07400
C1202       C  0.59215938  0.99303561  0.58569003     0.43100
C1203       C  0.96434836  0.41470639  0.94110268    -0.05900
Co1204     Co  0.53625622  0.45166779  0.50382567     0.73800
N1205       N  0.58708995  0.01776964  0.94407950    -0.46100
C1206       C  0.90187601  0.00148849  0.58064133     0.43300
N1207       N  0.51579139  0.40977429  0.56528697    -0.47000
Co1208     Co  0.54299789  0.03393953  0.00519942     0.73900
C1209       C  0.52948932  0.07923489  0.56770092    -0.06400
C1210       C  0.91584629  0.02787874  0.93732702    -0.06000
N1211       N  0.97393905  0.43445001  0.53891586    -0.25500
N1212       N  0.97678090  0.07973899  0.93802012    -0.46300
H1213       H  0.91391528  0.05424177  0.57146907     0.07300
C1214       C  0.57932570  0.46468522  0.56978211    -0.06400
Cl1215     Cl  0.49709818  0.99780009  0.50320466    -0.49400
C1216       C  0.59860921  0.49073677  0.92649687     0.43100
H1217       H  0.93458594  0.41642700  0.56882520     0.07300
N1218       N  0.58162753  0.01838415  0.56779837    -0.46100
N1219       N  0.98542605  0.29576666  0.75521554    -0.36100
N1220       N  0.99279051  0.24940436  0.69971048    -0.56700
N1221       N  0.99797492  0.19907487  0.75215000    -0.36100
N1222       N  0.99067628  0.24530672  0.80765137    -0.56700
C1223       C  0.98826046  0.31553779  0.72753795     0.27500
C1224       C  0.98847466  0.31342621  0.78431631     0.27500
C1225       C  0.99676935  0.18126740  0.72302186     0.27500
C1226       C  0.99507586  0.17925330  0.77975358     0.27500
C1227       C  0.98902156  0.27545040  0.67963978     0.36100
C1228       C  0.99466314  0.22447806  0.67794588     0.36100
C1229       C  0.98994524  0.27019937  0.82942572     0.36100
C1230       C  0.99362426  0.21921121  0.82772454     0.36100
C1231       C  0.99224323  0.34623582  0.73926544    -0.21400
C1232       C  0.99235958  0.34491599  0.77496410    -0.21400
C1233       C  0.99388568  0.14965201  0.73232806    -0.21400
C1234       C  0.99267561  0.14840830  0.76798986    -0.21400
C1235       C  0.98829351  0.26697026  0.64485473    -0.22400
C1236       C  0.99206170  0.23477947  0.64377207    -0.22400
C1237       C  0.99232858  0.25983518  0.86361945    -0.22400
C1238       C  0.99484526  0.22758749  0.86252233    -0.22400
C1239       C  0.98764700  0.30696534  0.69190169    -0.17800
C1240       C  0.98835354  0.30229021  0.81920246    -0.17800
C1241       C  0.99479731  0.18782161  0.81536986    -0.17800
C1242       C  0.99767746  0.19238772  0.68814597    -0.17800
H1243       H  0.99531967  0.36742033  0.72373040     0.15100
H1244       H  0.99552785  0.36491581  0.79207531     0.15100
H1245       H  0.99229391  0.12947644  0.71520991     0.15100
H1246       H  0.99003280  0.12712984  0.78346686     0.15100
H1247       H  0.98561222  0.28238051  0.62250278     0.13400
H1248       H  0.99251285  0.22056950  0.62043621     0.13400
H1249       H  0.99264977  0.27401592  0.88697926     0.13400
H1250       H  0.99732625  0.21212006  0.88485497     0.13400
H1251       H  0.98103484  0.27175398  0.75433590     0.26700
H1252       H  0.00134106  0.22322421  0.75307231     0.26700
N1253       N  0.69968778  0.50545918  0.75216977    -0.36100
N1254       N  0.74884189  0.50837928  0.69795855    -0.56700
N1255       N  0.79758891  0.51084953  0.75055603    -0.36100
N1256       N  0.74864622  0.50327294  0.80465600    -0.56700
C1257       C  0.68247964  0.49822535  0.72369376     0.27500
C1258       C  0.68232560  0.49655717  0.78019488     0.27500
C1259       C  0.81555183  0.50571585  0.72189592     0.27500
C1260       C  0.81544833  0.50272909  0.77833591     0.27500
C1261       C  0.72256451  0.51265235  0.67836076     0.36100
C1262       C  0.77397676  0.51585463  0.67754882     0.36100
C1263       C  0.72297431  0.50637263  0.82557207     0.36100
C1264       C  0.77437879  0.50862602  0.82472998     0.36100
C1265       C  0.65360442  0.48497671  0.73373614    -0.21400
C1266       C  0.65348682  0.48401269  0.76947051    -0.21400
C1267       C  0.84530224  0.49455806  0.73163520    -0.21400
C1268       C  0.84528500  0.49279741  0.76731808    -0.21400
C1269       C  0.73099188  0.52275617  0.64524321    -0.22400
C1270       C  0.76365131  0.52480426  0.64473699    -0.22400
C1271       C  0.73242216  0.51333017  0.85919230    -0.22400
C1272       C  0.76507872  0.51481125  0.85865168    -0.22400
C1273       C  0.69139222  0.50473539  0.68898746    -0.17800
C1274       C  0.69131099  0.50076464  0.81516776    -0.17800
C1275       C  0.80618238  0.50563117  0.81343619    -0.17800
C1276       C  0.80611936  0.51180971  0.68729363    -0.17800
H1277       H  0.63448422  0.47701303  0.71706201     0.15100
H1278       H  0.63434256  0.47514264  0.78569087     0.15100
H1279       H  0.86503455  0.48843522  0.71481150     0.15100
H1280       H  0.86501865  0.48508761  0.78334168     0.15100
H1281       H  0.71527658  0.52753200  0.62354836     0.13400
H1282       H  0.77816756  0.53151811  0.62261170     0.13400
H1283       H  0.71738864  0.51660882  0.88179005     0.13400
H1284       H  0.78026638  0.51941555  0.88078934     0.13400
H1285       H  0.72127793  0.51738397  0.75240804     0.26700
H1286       H  0.77506389  0.52092237  0.75137762     0.26700
C1287       C  0.63884533  0.47103812  0.61844085    -0.11800
C1288       C  0.61714437  0.49589834  0.61330435     0.05200
C1289       C  0.62325056  0.02262948  0.63152567    -0.07100
C1290       C  0.64746778  0.02337577  0.65631233    -0.07800
C1291       C  0.66658114  0.50172114  0.66210912    -0.02400
C1292       C  0.66374238  0.47399056  0.64239117     0.04500
N1293       N  0.68637691  0.44899597  0.64621727     0.67000
H1294       H  0.63704735  0.44964347  0.60320389     0.15900
H1295       H  0.65172448  0.04489171  0.67080747     0.15600
N1296       N  0.60489100  0.05064089  0.62629612     0.74700
O1297       O  0.68510914  0.43116580  0.67258017    -0.38800
O1298       O  0.71092726  0.44876474  0.62723604    -0.38700
O1299       O  0.58490498  0.05844368  0.64923881    -0.39400
O1300       O  0.60928663  0.57332480  0.60957907    -0.39500
C1301       C  0.62559707  0.52088009  0.87905974    -0.11800
C1302       C  0.62177895  0.49207167  0.89714176     0.05200
C1303       C  0.64068628  0.46589382  0.88706001    -0.07100
C1304       C  0.66269977  0.46905750  0.85987330    -0.07800
C1305       C  0.66651955  0.49783644  0.84245442    -0.02400
C1306       C  0.64766381  0.52382891  0.85184659     0.04500
N1307       N  0.65140250  0.55350413  0.83441091     0.67000
H1308       H  0.61152933  0.54130570  0.88620474     0.15900
H1309       H  0.67746614  0.44907326  0.85278267     0.15600
N1310       N  0.63942603  0.43638443  0.90508866     0.74700
O1311       O  0.63699263  0.55839791  0.80611118    -0.38800
O1312       O  0.67563623  0.07452131  0.84696245    -0.38700
O1313       O  0.62802702  0.41272205  0.88963059    -0.39400
O1314       O  0.65330396  0.93223363  0.92929346    -0.39500
C1315       C  0.87668698  0.53119733  0.62885894    -0.11800
C1316       C  0.87621757  0.50568663  0.60562525     0.05200
C1317       C  0.86567746  0.97146124  0.62227046    -0.07100
C1318       C  0.84210384  0.97183580  0.64799872    -0.07800
C1319       C  0.83062515  0.51020051  0.65944098    -0.02400
C1320       C  0.85421406  0.53362133  0.65559347     0.04500
N1321       N  0.85520735  0.56041101  0.67804205     0.67000
H1322       H  0.89458422  0.54951506  0.62633537     0.15900
H1323       H  0.83214250  0.94971424  0.65731786     0.15600
N1324       N  0.87707078  0.94157432  0.61058078     0.74700
O1325       O  0.87414941  0.56034360  0.70350116    -0.38800
O1326       O  0.81677260  0.07606133  0.64759422    -0.38700
O1327       O  0.85904997  0.42876669  0.59662847    -0.39400
O1328       O  0.86148293  0.92665985  0.58790395    -0.39500
C1329       C  0.85003003  0.53230950  0.84430560    -0.11800
C1330       C  0.83155164  0.50524257  0.83988621     0.05200
C1331       C  0.83808229  0.47790982  0.85939527    -0.07100
C1332       C  0.85667286  0.97447588  0.89029418    -0.07800
C1333       C  0.88086960  0.50581733  0.88941917    -0.02400
C1334       C  0.87491184  0.53275592  0.86832165     0.04500
N1335       N  0.89479167  0.56013098  0.86916931     0.67000
H1336       H  0.84554014  0.55302206  0.82833949     0.15900
H1337       H  0.85831115  0.95502506  0.90863555     0.15600
N1338       N  0.82090080  0.44931042  0.85314463     0.74700
O1339       O  0.91929619  0.56094408  0.85012912    -0.38800
O1340       O  0.89143739  0.07709842  0.87333078    -0.38700
O1341       O  0.82770304  0.43282798  0.82688166    -0.39400
O1342       O  0.78607286  0.94651343  0.87765502    -0.39500
C1343       C  0.52866792  0.12005219  0.63354916    -0.11800
C1344       C  0.99887012  0.12074975  0.60871716     0.05200
C1345       C  0.96972176  0.13274723  0.62184890    -0.07100
C1346       C  0.96991843  0.15629103  0.64733297    -0.07800
C1347       C  0.99860589  0.16825667  0.66023635    -0.02400
C1348       C  0.53072832  0.14269320  0.65992573     0.04500
N1349       N  0.55884018  0.14386358  0.68082177     0.67000
H1350       H  0.54846104  0.10409328  0.62992314     0.15900
H1351       H  0.94750604  0.16511849  0.65741587     0.15600
N1352       N  0.93964306  0.12116871  0.61015305     0.74700
O1353       O  0.56114516  0.12564499  0.70677880    -0.38800
O1354       O  0.58378985  0.15604815  0.66824398    -0.38700
O1355       O  0.92584725  0.09975754  0.62746802    -0.39400
O1356       O  0.92362271  0.13759440  0.58901168    -0.39500
C1357       C  0.52983453  0.14811437  0.84875684    -0.11800
C1358       C  0.99649704  0.16201226  0.84157649     0.05200
C1359       C  0.96957112  0.15241977  0.86069357    -0.07100
C1360       C  0.97242111  0.12859023  0.88571067    -0.07800
C1361       C  0.00182228  0.11384959  0.89234618    -0.02400
C1362       C  0.53225017  0.12357026  0.87309874     0.04500
N1363       N  0.56049111  0.10475944  0.87312851     0.67000
H1364       H  0.54978425  0.15304585  0.83162784     0.15900
H1365       H  0.95134717  0.12192558  0.90031280     0.15600
N1366       N  0.93914281  0.16662743  0.85505051     0.74700
O1367       O  0.56258788  0.08211727  0.85198962    -0.38800
O1368       O  0.58564658  0.11594476  0.88614538    -0.38700
O1369       O  0.91907762  0.15254698  0.83625079    -0.39400
O1370       O  0.92967880  0.18788890  0.87552502    -0.39500
C1371       C  0.51526904  0.37500366  0.63214296    -0.11800
C1372       C  0.98560595  0.38068336  0.61367781     0.05200
C1373       C  0.95772137  0.37262817  0.63270244    -0.07100
C1374       C  0.95889021  0.34868271  0.65809931    -0.07800
C1375       C  0.98740637  0.33288937  0.66554535    -0.02400
C1376       C  0.51808941  0.35243110  0.65865638     0.04500
N1377       N  0.54508576  0.35362662  0.68118596     0.67000
H1378       H  0.53374390  0.39275047  0.62937547     0.15900
H1379       H  0.93739900  0.34240583  0.67219430     0.15600
N1380       N  0.92824489  0.38881145  0.62759999     0.74700
O1381       O  0.57045192  0.33984620  0.67229926    -0.38800
O1382       O  0.54601737  0.37416712  0.70486350    -0.38700
O1383       O  0.90608113  0.37503541  0.61150495    -0.39400
O1384       O  0.92153041  0.41186075  0.64700490    -0.39500
C1385       C  0.96182000  0.36263348  0.88578828    -0.11800
C1386       C  0.99115173  0.37219122  0.90021848     0.05200
C1387       C  0.52400090  0.37184100  0.87479397    -0.07100
C1388       C  0.52419319  0.34787613  0.84984701    -0.07800
C1389       C  0.98888821  0.32617732  0.84723880    -0.02400
C1390       C  0.96057409  0.33951839  0.85983715     0.04500
N1391       N  0.93044742  0.32910320  0.84695829     0.67000
H1392       H  0.93965244  0.37285228  0.89463314     0.15900
H1393       H  0.54601189  0.34267421  0.83588175     0.15600
N1394       N  0.55295614  0.38842156  0.88132470     0.74700
O1395       O  0.91848168  0.30382931  0.85866220    -0.38800
O1396       O  0.91937642  0.34117751  0.81945438    -0.38700
O1397       O  0.57320102  0.37616302  0.90150977    -0.39400
O1398       O  0.56155346  0.41006825  0.86066127    -0.39500
C1399       C  0.99701470  0.90157963  0.42210929     0.43000
N1400       N  0.50785518  0.93143983  0.46497721     0.01800
C1401       C  0.91507537  0.53446124  0.06096632    -0.06000
H1402       H  0.91895086  0.55888942  0.43099452     0.07300
C1403       C  0.53594144  0.57624099  0.43710151    -0.06400
Co1404     Co  0.95241616  0.95749119  0.00141978     0.74200
N1405       N  0.93773174  0.52049869  0.46080186    -0.25600
Co1406     Co  0.96322918  0.54273169  0.49962934     0.74100
C1407       C  0.01104560  0.59125469  0.41989390     0.43100
N1408       N  0.56778342  0.50523053  0.46627835     0.01500
N1409       N  0.99306668  0.56365290  0.46267587     0.01600
N1410       N  0.91042031  0.97390014  0.06459258    -0.46400
H1411       H  0.94358766  0.91259173  0.42979951     0.07300
N1412       N  0.93249194  0.98905138  0.46082332     0.01900
N1413       N  0.98913199  0.56617471  0.03762167     0.01600
C1414       C  0.50472803  0.59591672  0.08138019     0.43200
N1415       N  0.56183937  0.97679804  0.46686154    -0.25000
C1416       C  0.96362265  0.91260670  0.06495620    -0.05900
N1417       N  0.51903361  0.91232463  0.44061504    -0.46100
N1418       N  0.97895035  0.58646473  0.06148403    -0.46300
C1419       C  0.48727318  0.89927644  0.07995152     0.43000
N1420       N  0.92919593  0.98444403  0.03926895     0.01800
N1421       N  0.56018981  0.97517583  0.04391207    -0.25000
N1422       N  0.97880497  0.93455410  0.46263203    -0.25500
N1423       N  0.56368376  0.50619771  0.04402367     0.01500
H1424       H  0.57935353  0.93883788  0.07747976     0.07400
H1425       H  0.55741994  0.58290280  0.07217384     0.07400
N1426       N  0.93355234  0.52176375  0.03631521    -0.25600
N1427       N  0.52311618  0.55970327  0.46350455    -0.25200
N1428       N  0.50545449  0.92945312  0.03930059     0.01800
C1429       C  0.90291117  0.00652770  0.41926534     0.43200
C1430       C  0.57891078  0.96516011  0.44038059    -0.06400
N1431       N  0.52060538  0.56156072  0.04133994    -0.25200
H1432       H  0.56116348  0.57847773  0.43209291     0.07400
N1433       N  0.91299663  0.97992650  0.43568756    -0.46400
H1434       H  0.58072858  0.94042677  0.43385447     0.07400
C1435       C  0.59016906  0.49115492  0.08873283     0.43100
C1436       C  0.96829842  0.91613119  0.43668639    -0.05900
Co1437     Co  0.53559944  0.95229274  0.00373751     0.73800
N1438       N  0.58784998  0.51526275  0.44207962    -0.46100
C1439       C  0.89858131  0.50754195  0.07673346     0.43300
N1440       N  0.51422167  0.91027467  0.06479284    -0.47000
Co1441     Co  0.54452968  0.53338818  0.50268389     0.73900
C1442       C  0.53240508  0.57987977  0.06652664    -0.06400
C1443       C  0.92109301  0.53373857  0.43499406    -0.06000
N1444       N  0.97545448  0.93094051  0.03942760    -0.25500
N1445       N  0.98423185  0.58239607  0.43683810    -0.46300
H1446       H  0.91256653  0.55945557  0.06605285     0.07300
C1447       C  0.57645801  0.96361437  0.07122296    -0.06400
Cl1448     Cl  0.49890728  0.49806754  0.00247410    -0.49400
C1449       C  0.59312598  0.99288176  0.42362217     0.43100
H1450       H  0.93859631  0.90927315  0.07045927     0.07300
N1451       N  0.58118570  0.51664853  0.07011546    -0.46100
N1452       N  0.01002570  0.79659035  0.25379021    -0.36100
N1453       N  0.01117019  0.74851044  0.19907552    -0.56700
N1454       N  0.01344391  0.69905057  0.25161329    -0.36100
N1455       N  0.00765322  0.74692117  0.30634325    -0.56700
C1456       C  0.00380855  0.81473953  0.22559911     0.27500
C1457       C  0.00235514  0.81373202  0.28222174     0.27500
C1458       C  0.00819960  0.68141233  0.22285039     0.27500
C1459       C  0.00692606  0.68065889  0.27960999     0.27500
C1460       C  0.01384581  0.77470057  0.17905385     0.36100
C1461       C  0.01552794  0.72348963  0.17781584     0.36100
C1462       C  0.01127656  0.77222348  0.32729339     0.36100
C1463       C  0.01326460  0.72114554  0.32621975     0.36100
C1464       C  0.99268160  0.84403545  0.23628242    -0.21400
C1465       C  0.99179245  0.84339813  0.27200238    -0.21400
C1466       C  0.99885600  0.65123928  0.23279091    -0.21400
C1467       C  0.99797843  0.65079049  0.26855838    -0.21400
C1468       C  0.01966861  0.76626402  0.14480814    -0.22400
C1469       C  0.02069691  0.73384377  0.14402419    -0.22400
C1470       C  0.01888511  0.76250565  0.36072190    -0.22400
C1471       C  0.02026340  0.73010660  0.36002267    -0.22400
C1472       C  0.00851411  0.80600081  0.19049549    -0.17800
C1473       C  0.00581208  0.80384939  0.31717766    -0.17800
C1474       C  0.01011408  0.68958706  0.31489548    -0.17800
C1475       C  0.01238503  0.69143479  0.18789994    -0.17800
H1476       H  0.98586903  0.86387260  0.22004772     0.15100
H1477       H  0.98421198  0.86262593  0.28854452     0.15100
H1478       H  0.99318916  0.63153260  0.21604808     0.15100
H1479       H  0.99149539  0.63070246  0.28460777     0.15100
H1480       H  0.02230898  0.78183459  0.12256920     0.13400
H1481       H  0.02425997  0.71953618  0.12107878     0.13400
H1482       H  0.02278300  0.77720964  0.38328910     0.13400
H1483       H  0.02543033  0.71487090  0.38199253     0.13400
H1484       H  0.02019417  0.77432161  0.25362892     0.26700
H1485       H  0.02238968  0.72183413  0.25228471     0.26700
N1486       N  0.69757374  0.00376719  0.25282452    -0.36100
N1487       N  0.74755482  0.00302430  0.19988855    -0.56700
N1488       N  0.79513670  0.00987532  0.25363189    -0.36100
N1489       N  0.74525401  0.00623503  0.30665967    -0.56700
C1490       C  0.68096443  0.99417496  0.22481736     0.27500
C1491       C  0.67971609  0.99689937  0.28108443     0.27500
C1492       C  0.81377710  0.00335923  0.22587233     0.27500
C1493       C  0.81247719  0.00352236  0.28237344     0.27500
C1494       C  0.72169434  0.00523596  0.17921165     0.36100
C1495       C  0.77307252  0.00933423  0.17958043     0.36100
C1496       C  0.71912983  0.01060306  0.32651449     0.36100
C1497       C  0.77050359  0.01230314  0.32715357     0.36100
C1498       C  0.65202268  0.98141531  0.23534086    -0.21400
C1499       C  0.65124071  0.98313800  0.27094758    -0.21400
C1500       C  0.84346567  0.99325517  0.23708123    -0.21400
C1501       C  0.84264634  0.99333901  0.27277955    -0.21400
C1502       C  0.73078783  0.01263681  0.14547499    -0.22400
C1503       C  0.76342602  0.01523820  0.14570762    -0.22400
C1504       C  0.72777264  0.01922886  0.35993039    -0.22400
C1505       C  0.76045784  0.02027791  0.36034870    -0.22400
C1506       C  0.69025747  0.99854058  0.18993426    -0.17800
C1507       C  0.68783899  0.00402986  0.31563748    -0.17800
C1508       C  0.80244435  0.00814540  0.31701968    -0.17800
C1509       C  0.80503486  0.00718931  0.19070324    -0.17800
H1510       H  0.63326600  0.97208696  0.21904286     0.15100
H1511       H  0.63181624  0.97535851  0.28744512     0.15100
H1512       H  0.86363905  0.98650334  0.22120129     0.15100
H1513       H  0.86211969  0.98672589  0.28974192     0.15100
H1514       H  0.71553982  0.01539421  0.12298271     0.13400
H1515       H  0.77838115  0.02040695  0.12343688     0.13400
H1516       H  0.71218990  0.02364668  0.38183611     0.13400
H1517       H  0.77515884  0.02570320  0.38264997     0.13400
H1518       H  0.71895406  0.01605866  0.25247437     0.26700
H1519       H  0.77248191  0.01965406  0.25303183     0.26700
C1520       C  0.63352007  0.96639099  0.12244973    -0.11800
C1521       C  0.61403666  0.99288481  0.11627846     0.05200
C1522       C  0.61689380  0.51881428  0.13873936    -0.07100
C1523       C  0.64194122  0.52081687  0.16245058    -0.07800
C1524       C  0.66502192  0.99644005  0.16345453    -0.02400
C1525       C  0.65892682  0.96805595  0.14591403     0.04500
N1526       N  0.67809397  0.94073984  0.15232194     0.67000
H1527       H  0.62953090  0.94454418  0.10856395     0.15900
H1528       H  0.64355300  0.54111435  0.17947849     0.15600
N1529       N  0.59405558  0.54381110  0.13791961     0.74700
O1530       O  0.67158603  0.92290705  0.17775574    -0.38800
O1531       O  0.70460886  0.93797222  0.13713980    -0.38700
O1532       O  0.57279295  0.54472286  0.16113993    -0.39400
O1533       O  0.60898107  0.07084922  0.11257978    -0.39500
C1534       C  0.61872501  0.02273541  0.37531666    -0.11800
C1535       C  0.61623126  0.99442395  0.39453465     0.05200
C1536       C  0.63675711  0.96900773  0.38624275    -0.07100
C1537       C  0.65994058  0.97280757  0.36055651    -0.07800
C1538       C  0.66277078  0.00121342  0.34232991    -0.02400
C1539       C  0.64152859  0.02606735  0.34894388     0.04500
N1540       N  0.64313368  0.05469102  0.32912142     0.67000
H1541       H  0.60301799  0.04234693  0.38091267     0.15900
H1542       H  0.67603598  0.95346239  0.35486741     0.15600
N1543       N  0.63534215  0.93940880  0.40403439     0.74700
O1544       O  0.62877386  0.05645660  0.30035680    -0.38800
O1545       O  0.67941951  0.57151542  0.35419284    -0.38700
O1546       O  0.62654328  0.91533359  0.38737594    -0.39400
O1547       O  0.65613101  0.42765537  0.42700305    -0.39500
C1548       C  0.87435914  0.02775000  0.13126778    -0.11800
C1549       C  0.87743721  0.99991837  0.11168264     0.05200
C1550       C  0.85218739  0.48364902  0.10970528    -0.07100
C1551       C  0.82973793  0.48578184  0.13643932    -0.07800
C1552       C  0.83042183  0.00513503  0.16395595    -0.02400
C1553       C  0.85131007  0.03045355  0.15735155     0.04500
N1554       N  0.84922905  0.05918364  0.17660694     0.67000
H1555       H  0.88989872  0.04772087  0.12647124     0.15900
H1556       H  0.81264389  0.46682921  0.14007025     0.15600
N1557       N  0.85088043  0.45701439  0.08703409     0.74700
O1558       O  0.86634007  0.06259080  0.20329356    -0.38800
O1559       O  0.83781317  0.58901807  0.16389353    -0.38700
O1560       O  0.87336504  0.92146089  0.11838805    -0.39400
O1561       O  0.83119284  0.45712668  0.06225847    -0.39500
C1562       C  0.84550739  0.03494773  0.34899573    -0.11800
C1563       C  0.82710230  0.00789647  0.34424530     0.05200
C1564       C  0.83374951  0.98034774  0.36334956    -0.07100
C1565       C  0.86521552  0.48018810  0.38130138    -0.07800
C1566       C  0.87743292  0.00752833  0.39256073    -0.02400
C1567       C  0.87074290  0.03503415  0.37257946     0.04500
N1568       N  0.89016357  0.06271363  0.37408816     0.67000
H1569       H  0.84079414  0.05588828  0.33347297     0.15900
H1570       H  0.87081002  0.45834961  0.39478235     0.15600
N1571       N  0.81612266  0.95198246  0.35734280     0.74700
O1572       O  0.91389726  0.06486843  0.35403064    -0.38800
O1573       O  0.87809911  0.58805488  0.38914064    -0.38700
O1574       O  0.82402858  0.93412260  0.33259020    -0.39400
O1575       O  0.79923678  0.44416296  0.36181095    -0.39500
C1576       C  0.53193213  0.62338934  0.13002224    -0.11800
C1577       C  0.00584910  0.62080828  0.10709550     0.05200
C1578       C  0.97816065  0.63577576  0.12027225    -0.07100
C1579       C  0.98084184  0.65873368  0.14640300    -0.07800
C1580       C  0.01060782  0.66715737  0.15999990    -0.02400
C1581       C  0.53388926  0.64662571  0.15569110     0.04500
N1582       N  0.56177921  0.64805492  0.17691460     0.67000
H1583       H  0.55166224  0.60720638  0.12715506     0.15900
H1584       H  0.95950707  0.67000250  0.15629848     0.15600
N1585       N  0.94711461  0.62804750  0.10776371     0.74700
O1586       O  0.56379078  0.63013640  0.20315102    -0.38800
O1587       O  0.58688697  0.65999515  0.16443338    -0.38700
O1588       O  0.92994323  0.60933622  0.12526402    -0.39400
O1589       O  0.93414906  0.64589398  0.08553480    -0.39500
C1590       C  0.53303736  0.64692141  0.34588684    -0.11800
C1591       C  0.01013585  0.66421036  0.34161917     0.05200
C1592       C  0.98373948  0.65916134  0.36352113    -0.07100
C1593       C  0.98471357  0.63515654  0.38851414    -0.07800
C1594       C  0.01161872  0.61567275  0.39215931    -0.02400
C1595       C  0.53497691  0.62214933  0.37010711     0.04500
N1596       N  0.56367494  0.60405742  0.37147035     0.67000
H1597       H  0.55374144  0.65287677  0.33029076     0.15900
H1598       H  0.96417529  0.63190668  0.40526511     0.15600
N1599       N  0.95546899  0.67770590  0.36015120     0.74700
O1600       O  0.56577945  0.57937533  0.35329698    -0.38800
O1601       O  0.58882136  0.61675713  0.38271562    -0.38700
O1602       O  0.93219619  0.66668363  0.34337092    -0.39400
O1603       O  0.95096674  0.70055037  0.38056206    -0.39500
C1604       C  0.51540621  0.87476901  0.12943381    -0.11800
C1605       C  0.99417319  0.87611432  0.11091479     0.05200
C1606       C  0.96924059  0.85545190  0.12083604    -0.07100
C1607       C  0.97436489  0.83317616  0.14723252    -0.07800
C1608       C  0.00402062  0.83071294  0.16360318    -0.02400
C1609       C  0.51867359  0.85251200  0.15607321     0.04500
N1610       N  0.54849616  0.84997221  0.17365083     0.67000
H1611       H  0.53547827  0.89002444  0.12358089     0.15900
H1612       H  0.95531511  0.81712059  0.15446215     0.15600
N1613       N  0.93933764  0.85517064  0.10322651     0.74700
O1614       O  0.57089077  0.83490163  0.15941059    -0.38800
O1615       O  0.55476584  0.86885856  0.19800641    -0.38700
O1616       O  0.93537588  0.83625237  0.07832090    -0.39400
O1617       O  0.91521529  0.86650349  0.11828416    -0.39500
C1618       C  0.97219548  0.85865813  0.38620223    -0.11800
C1619       C  0.99927502  0.87662125  0.39498596     0.05200
C1620       C  0.52298989  0.87125515  0.37559449    -0.07100
C1621       C  0.52360470  0.84723070  0.35071773    -0.07800
C1622       C  0.00323613  0.82818966  0.34469602    -0.02400
C1623       C  0.97408521  0.83449029  0.36134536     0.04500
N1624       N  0.94626269  0.81668116  0.35278809     0.67000
H1625       H  0.94958055  0.86306303  0.39885210     0.15900
H1626       H  0.54506106  0.84340112  0.33558333     0.15600
N1627       N  0.55107766  0.88966248  0.38040121     0.74700
O1628       O  0.94191050  0.78994179  0.36667259    -0.38800
O1629       O  0.92986297  0.82456473  0.32667247    -0.38700
O1630       O  0.57368742  0.87799453  0.39779997    -0.39400
O1631       O  0.55653793  0.91255016  0.36008511    -0.39500
C1632       C  0.99456576  0.89935681  0.92214650     0.43000
N1633       N  0.51023268  0.93089937  0.96331231     0.01800
C1634       C  0.91624724  0.53230981  0.56156348    -0.06000
H1635       H  0.91762476  0.55775262  0.92948649     0.07300
C1636       C  0.53702987  0.57798978  0.93990508    -0.06400
Co1637     Co  0.95358100  0.96087771  0.49937181     0.74200
N1638       N  0.93649434  0.52038273  0.96096104    -0.25600
Co1639     Co  0.96231967  0.54352419  0.99921744     0.74100
C1640       C  0.00865322  0.58982190  0.91706939     0.43100
N1641       N  0.56800667  0.50634436  0.96801394     0.01500
N1642       N  0.99169352  0.56359807  0.96143263     0.01600
N1643       N  0.91159276  0.97640894  0.56188104    -0.46400
H1644       H  0.94123111  0.90924768  0.93206221     0.07300
N1645       N  0.93052499  0.98483852  0.96323004     0.01900
N1646       N  0.98947150  0.56481570  0.53842363     0.01600
C1647       C  0.50443879  0.59370454  0.58097208     0.43200
N1648       N  0.56459122  0.97598168  0.96790243    -0.25000
C1649       C  0.96226151  0.91613236  0.56344931    -0.05900
N1650       N  0.52210613  0.91198045  0.93914439    -0.46100
N1651       N  0.97881444  0.58575157  0.56120974    -0.46300
C1652       C  0.48959774  0.89957488  0.58131499     0.43000
N1653       N  0.93017279  0.98757264  0.53684569     0.01800
N1654       N  0.56051730  0.97655009  0.54284453    -0.25000
N1655       N  0.97707226  0.93148728  0.96381859    -0.25500
N1656       N  0.56461560  0.50651876  0.54182887     0.01500
H1657       H  0.58174762  0.94030916  0.57502131     0.07400
H1658       H  0.55730811  0.58164390  0.57076440     0.07400
N1659       N  0.93423775  0.52012081  0.53616112    -0.25600
N1660       N  0.52368003  0.56118592  0.96575333    -0.25200
N1661       N  0.50580868  0.93088554  0.54082998     0.01800
C1662       C  0.90205815  0.00037950  0.92020917     0.43200
C1663       C  0.58313872  0.96453062  0.94243314    -0.06400
N1664       N  0.52065682  0.56090270  0.53936535    -0.25200
H1665       H  0.56233714  0.58006093  0.93539590     0.07400
N1666       N  0.91183100  0.97454761  0.93799375    -0.46400
H1667       H  0.58542848  0.93980710  0.93605267     0.07400
C1668       C  0.59262993  0.49319651  0.58594335     0.43100
C1669       C  0.96607919  0.91312695  0.93808697    -0.05900
Co1670     Co  0.53445745  0.95340197  0.50399237     0.73800
N1671       N  0.58801234  0.51648110  0.94372158    -0.46100
C1672       C  0.89977606  0.50517669  0.57692914     0.43300
N1673       N  0.51575341  0.91108346  0.56513699    -0.47000
Co1674     Co  0.54452441  0.53411206  0.00478092     0.73900
C1675       C  0.53231716  0.57878099  0.56501420    -0.06400
C1676       C  0.91992148  0.53275827  0.93454256    -0.06000
N1677       N  0.97528278  0.93403626  0.53823249    -0.25500
N1678       N  0.98229433  0.58130595  0.93500708    -0.46300
H1679       H  0.91418359  0.55716195  0.56761577     0.07300
C1680       C  0.57830278  0.96507505  0.56905438    -0.06400
Cl1681     Cl  0.49945012  0.49666529  0.50181290    -0.49400
C1682       C  0.59825452  0.99237234  0.92664551     0.43100
H1683       H  0.93701412  0.91311390  0.56787097     0.07300
N1684       N  0.58262695  0.51795778  0.56690890    -0.46100
N1685       N  0.00307213  0.79640781  0.75308432    -0.36100
N1686       N  0.00348470  0.74980370  0.69733947    -0.56700
N1687       N  0.00672855  0.69896582  0.74899577    -0.36100
N1688       N  0.00096520  0.74528541  0.80468832    -0.56700
C1689       C  0.99680776  0.81545219  0.72559415     0.27500
C1690       C  0.99655957  0.81296395  0.78220686     0.27500
C1691       C  0.00217574  0.68200238  0.71972865     0.27500
C1692       C  0.00014296  0.67976078  0.77629403     0.27500
C1693       C  0.00546491  0.77641403  0.67779951     0.36100
C1694       C  0.00852659  0.72521403  0.67564019     0.36100
C1695       C  0.00479016  0.77011059  0.82625357     0.36100
C1696       C  0.00574694  0.71901235  0.82408817     0.36100
C1697       C  0.98672674  0.84472087  0.73745083    -0.21400
C1698       C  0.98662589  0.84317017  0.77314555    -0.21400
C1699       C  0.99292537  0.65150009  0.72859716    -0.21400
C1700       C  0.99174571  0.65007128  0.76427320    -0.21400
C1701       C  0.01131635  0.76865157  0.64338429    -0.22400
C1702       C  0.01338595  0.73628104  0.64204102    -0.22400
C1703       C  0.01162847  0.75956294  0.85960664    -0.22400
C1704       C  0.01218672  0.72715711  0.85824811    -0.22400
C1705       C  0.00060643  0.80758178  0.69009972    -0.17800
C1706       C  0.00038049  0.80210540  0.81679792    -0.17800
C1707       C  0.00296706  0.68773015  0.81179797    -0.17800
C1708       C  0.00694930  0.69283549  0.68521958    -0.17800
H1709       H  0.98011022  0.86513728  0.72201189     0.15100
H1710       H  0.97992031  0.86216179  0.79044677     0.15100
H1711       H  0.98759907  0.63218650  0.71117535     0.15100
H1712       H  0.98543331  0.62948128  0.77961435     0.15100
H1713       H  0.01375826  0.78463716  0.62147805     0.13400
H1714       H  0.01765822  0.72247882  0.61886605     0.13400
H1715       H  0.01554032  0.77373834  0.88257730     0.13400
H1716       H  0.01667676  0.71140170  0.87995371     0.13400
H1717       H  0.01258577  0.77380933  0.75215385     0.26700
H1718       H  0.01548726  0.72187178  0.75027687     0.26700
N1719       N  0.69939480  0.00317941  0.75211236    -0.36100
N1720       N  0.74882310  0.99906082  0.69852562    -0.56700
N1721       N  0.79706214  0.00128331  0.75162672    -0.36100
N1722       N  0.74779060  0.00135142  0.80521503    -0.56700
C1723       C  0.68195016  0.99488745  0.72416789     0.27500
C1724       C  0.68145243  0.99718801  0.78060277     0.27500
C1725       C  0.81487614  0.99386066  0.72357119     0.27500
C1726       C  0.81417358  0.99348309  0.78003635     0.27500
C1727       C  0.72301601  0.00370508  0.67832000     0.36100
C1728       C  0.77447592  0.00445809  0.67813125     0.36100
C1729       C  0.72236246  0.00827476  0.82524408     0.36100
C1730       C  0.77371505  0.00650329  0.82499450     0.36100
C1731       C  0.65233266  0.98399194  0.73494927    -0.21400
C1732       C  0.65201492  0.98547121  0.77064984    -0.21400
C1733       C  0.84384983  0.98143512  0.73424855    -0.21400
C1734       C  0.84332747  0.98102549  0.77000389    -0.21400
C1735       C  0.73224757  0.01164445  0.64476532    -0.22400
C1736       C  0.76495165  0.01212563  0.64464292    -0.22400
C1737       C  0.73210397  0.01755158  0.85807036    -0.22400
C1738       C  0.76477901  0.01660107  0.85785649    -0.22400
C1739       C  0.69135623  0.99859272  0.68916638    -0.17800
C1740       C  0.69056243  0.00329573  0.81518719    -0.17800
C1741       C  0.80510444  0.99960301  0.81463643    -0.17800
C1742       C  0.80626069  0.99999040  0.68880158    -0.17800
H1743       H  0.63288111  0.97599136  0.71876015     0.15100
H1744       H  0.63229871  0.97883345  0.78732776     0.15100
H1745       H  0.86345842  0.97375412  0.71806245     0.15100
H1746       H  0.86245541  0.97301888  0.78671900     0.15100
H1747       H  0.71700966  0.01619221  0.62261241     0.13400
H1748       H  0.77996094  0.01700573  0.62234242     0.13400
H1749       H  0.71722186  0.02383445  0.87998864     0.13400
H1750       H  0.78016731  0.02201357  0.87960186     0.13400
H1751       H  0.72160294  0.01394012  0.75159083     0.26700
H1752       H  0.77541713  0.01312096  0.75144905     0.26700
C1753       C  0.63626434  0.96775942  0.61929678    -0.11800
C1754       C  0.61718155  0.99448864  0.61279094     0.05200
C1755       C  0.62067055  0.52400583  0.63285726    -0.07100
C1756       C  0.64503123  0.52642820  0.65734769    -0.07800
C1757       C  0.66633607  0.99683912  0.66240822    -0.02400
C1758       C  0.66093007  0.96890715  0.64375316     0.04500
N1759       N  0.68063904  0.94180600  0.64928947     0.67000
H1760       H  0.63248797  0.94610295  0.60498704     0.15900
H1761       H  0.64732155  0.54781097  0.67258378     0.15600
N1762       N  0.59995771  0.55046927  0.62818311     0.74700
O1763       O  0.67716581  0.92543521  0.67655182    -0.38800
O1764       O  0.70529509  0.93818981  0.63091885    -0.38700
O1765       O  0.57772282  0.55487814  0.64974551    -0.39400
O1766       O  0.61511179  0.07143471  0.60544605    -0.39500
C1767       C  0.62638266  0.02373492  0.88082790    -0.11800
C1768       C  0.62168602  0.99433340  0.89756511     0.05200
C1769       C  0.63973597  0.96801280  0.88610010    -0.07100
C1770       C  0.66160976  0.97155713  0.85895663    -0.07800
C1771       C  0.66621137  0.00075619  0.84283805    -0.02400
C1772       C  0.64842132  0.02700787  0.85358614     0.04500
N1773       N  0.65297128  0.05707801  0.83724747     0.67000
H1774       H  0.61290088  0.04428512  0.88886650     0.15900
H1775       H  0.67559323  0.95137997  0.85070813     0.15600
N1776       N  0.63737883  0.93764030  0.90210375     0.74700
O1777       O  0.63924472  0.06290329  0.80875196    -0.38800
O1778       O  0.67370065  0.57176845  0.84327958    -0.38700
O1779       O  0.62868401  0.91460829  0.88370339    -0.39400
O1780       O  0.65790646  0.43193777  0.93049771    -0.39500
C1781       C  0.86813343  0.02874141  0.62438923    -0.11800
C1782       C  0.87853382  0.00026008  0.60958968     0.05200
C1783       C  0.85287207  0.48187980  0.60998215    -0.07100
C1784       C  0.83041589  0.48435747  0.63678296    -0.07800
C1785       C  0.83160090  0.00037826  0.66209293    -0.02400
C1786       C  0.84504867  0.02896374  0.65053968     0.04500
N1787       N  0.83522121  0.05847316  0.66487000     0.67000
H1788       H  0.87766298  0.05115970  0.61566536     0.15900
H1789       H  0.81239160  0.46617413  0.63970194     0.15600
N1790       N  0.85048944  0.45588032  0.58655220     0.74700
O1791       O  0.85053935  0.06993240  0.69005788    -0.38800
O1792       O  0.84377449  0.58631993  0.66754038    -0.38700
O1793       O  0.89701959  0.92692389  0.62910943    -0.39400
O1794       O  0.83267094  0.45834658  0.56027154    -0.39500
C1795       C  0.85164185  0.02428748  0.84265304    -0.11800
C1796       C  0.83012076  0.99917576  0.84140139     0.05200
C1797       C  0.83291293  0.97381155  0.86485724    -0.07100
C1798       C  0.86236878  0.47842645  0.88428331    -0.07800
C1799       C  0.87813692  0.99998267  0.89212049    -0.02400
C1800       C  0.87588469  0.02472913  0.86739262     0.04500
N1801       N  0.89919568  0.04926550  0.86524648     0.67000
H1802       H  0.84996523  0.04333489  0.82378160     0.15900
H1803       H  0.86675872  0.45729206  0.89955017     0.15600
N1804       N  0.81253950  0.94684648  0.86205465     0.74700
O1805       O  0.92359334  0.04497282  0.84664215    -0.38800
O1806       O  0.88356080  0.58571914  0.88065068    -0.38700
O1807       O  0.81829321  0.92626053  0.83924102    -0.39400
O1808       O  0.79545714  0.44384583  0.86961932    -0.39500
C1809       C  0.53304744  0.62436921  0.62647619    -0.11800
C1810       C  0.00450000  0.62127841  0.60572765     0.05200
C1811       C  0.97907121  0.64291617  0.60969064    -0.07100
C1812       C  0.98064886  0.66628946  0.63529803    -0.07800
C1813       C  0.00715423  0.66869625  0.65721307    -0.02400
C1814       C  0.53459581  0.64718937  0.65261182     0.04500
N1815       N  0.56427871  0.65275179  0.66963647     0.67000
H1816       H  0.55470911  0.61203176  0.61971902     0.15900
H1817       H  0.96096235  0.68264468  0.63823268     0.15600
N1818       N  0.95182244  0.64217612  0.58751363     0.74700
O1819       O  0.57292910  0.63437092  0.69377478    -0.38800
O1820       O  0.58465251  0.67044715  0.65526114    -0.38700
O1821       O  0.92618685  0.63038236  0.59882690    -0.39400
O1822       O  0.95102116  0.66012967  0.56122951    -0.39500
C1823       C  0.53572000  0.64779977  0.84781934    -0.11800
C1824       C  0.00397442  0.66158091  0.83756135     0.05200
C1825       C  0.97675220  0.65249488  0.85640543    -0.07100
C1826       C  0.97902451  0.62876050  0.88157418    -0.07800
C1827       C  0.00801283  0.61318683  0.88815210    -0.02400
C1828       C  0.53722131  0.62359295  0.87270692     0.04500
N1829       N  0.56550969  0.60492752  0.87438298     0.67000
H1830       H  0.55637304  0.65272679  0.83171827     0.15900
H1831       H  0.95776438  0.62268163  0.89616202     0.15600
N1832       N  0.94643553  0.66655204  0.84971213     0.74700
O1833       O  0.56791970  0.58116477  0.85483558    -0.38800
O1834       O  0.59043184  0.61675392  0.88725239    -0.38700
O1835       O  0.92708810  0.65238619  0.83010002    -0.39400
O1836       O  0.93615601  0.68761930  0.86995350    -0.39500
C1837       C  0.52077253  0.87122325  0.62596261    -0.11800
C1838       C  0.99009578  0.87964841  0.61134823     0.05200
C1839       C  0.96485834  0.85846675  0.61894544    -0.07100
C1840       C  0.96854351  0.83580007  0.64532565    -0.07800
C1841       C  0.99706731  0.83334929  0.66397320    -0.02400
C1842       C  0.52507207  0.84788068  0.65126554     0.04500
N1843       N  0.55587866  0.84375182  0.66631510     0.67000
H1844       H  0.54096087  0.88595782  0.61905674     0.15900
H1845       H  0.94942144  0.81919004  0.65047067     0.15600
N1846       N  0.93645428  0.85761113  0.59856841     0.74700
O1847       O  0.57601504  0.82666408  0.65087519    -0.38800
O1848       O  0.56529937  0.86293419  0.68913517    -0.38700
O1849       O  0.93610488  0.84107847  0.57134210    -0.39400
O1850       O  0.91031834  0.86498364  0.61258368    -0.39500
C1851       C  0.96926881  0.85567049  0.88807782    -0.11800
C1852       C  0.99626720  0.87436135  0.89510360     0.05200
C1853       C  0.52773099  0.87172534  0.87347889    -0.07100
C1854       C  0.52891920  0.84803070  0.84823442    -0.07800
C1855       C  0.99887530  0.82596782  0.84482059    -0.02400
C1856       C  0.97048102  0.83155167  0.86318883     0.04500
N1857       N  0.94271730  0.81304237  0.85635576     0.67000
H1858       H  0.94720951  0.85954421  0.90203818     0.15900
H1859       H  0.55079590  0.84417651  0.83384459     0.15600
N1860       N  0.55583357  0.88965842  0.87979722     0.74700
O1861       O  0.93843178  0.78751612  0.87280608    -0.38800
O1862       O  0.92632636  0.81871996  0.82955670    -0.38700
O1863       O  0.57770582  0.87735085  0.89778601    -0.39400
O1864       O  0.56215687  0.91293441  0.86033564    -0.39500
loop_ 
_geom_bond_atom_site_label_1 
_geom_bond_atom_site_label_2 
_geom_bond_distance 
_geom_bond_site_symmetry_2 
_ccdc_geom_bond_type 
C1           C38   1.461       .  S
C1          C221   1.487       .  S
C1          N951   1.353       .  A
N2           N19   1.326       .  A
N2          N956   1.320   1_455  A
N2         Co272   2.093       .  S
C3           C41   1.464   1_545  S
C3           N28   1.338       .  A
C3           H48   1.081       .  S
H4           C45   1.080       .  S
C5          C941   1.462       .  S
C5           N29   1.340       .  A
C5           H34   1.079       .  S
Co6          N46   2.082   1_556  S
Co6          N22   2.092   1_556  S
Co6         N257   2.089       .  S
Co6         N247   2.090       .  S
Co6       Cl1448   2.458   1_556  S
N7           C45   1.340       .  A
N7          N480   1.319   1_545  A
N7           Co8   2.083       .  S
Co8          N11   2.086       .  S
Co8         N261   2.079       .  S
Co8         N248   2.094       .  S
Co8       Cl1215   2.448   1_545  S
C9          C196   1.483       .  S
C9          C937   1.462       .  S
C9           N47   1.353       .  A
N10          N40   1.325       .  A
N10         N483   1.318   1_545  A
N10         Co43   2.089       .  S
N11          N47   1.322       .  A
N11         N961   1.317       .  A
N12         C507   1.352       .  A
N12          N22   1.326       .  A
H13          C38   1.081       .  S
N14          N35   1.326       .  A
N14         N473   1.318       .  A
N14        Co239   2.096       .  S
N15          N20   1.328       .  A
N15         N965   1.318       .  A
N15        Co241   2.088       .  S
C16          C44   1.462   1_655  S
C16        C1111   1.484       .  S
C16         N952   1.352       .  A
N17          C32   1.345       .  A
N17         N476   1.319       .  A
N17        Co272   2.093       .  S
C18         C953   1.460       .  S
C18          N46   1.344       .  A
C18          H52   1.081       .  S
N19         C933   1.352   1_455  A
N20         C948   1.354       .  A
C21         C950   1.465       .  S
C21        C1139   1.491       .  S
C21          N42   1.356   1_655  A
N22         N494   1.320       .  A
N23          C49   1.346       .  A
N23         N491   1.320       .  A
N23         Co39   2.108       .  S
N24          C38   1.340       .  A
N24         N934   1.321       .  A
N24        Co239   2.082       .  S
N25          N53   1.325       .  A
N25         N489   1.320   1_545  A
N25        Co276   2.082       .  S
H26          C49   1.081       .  S
H27          C44   1.081       .  S
N28         N488   1.320   1_545  A
N28        Co241   2.082       .  S
N29         N943   1.318   1_455  A
N29         Co43   2.071       .  S
N30          N42   1.323       .  A
N30         N978   1.320   1_455  A
N30         Co39   2.101       .  S
C31         C168   1.481       .  S
C31         C511   1.456       .  S
C31          N35   1.356       .  A
C32          C51   1.467       .  S
C32          H36   1.080       .  S
N33          C44   1.337       .  A
N33         N947   1.318   1_455  A
N33        Co276   2.081       .  S
C37         C515   1.464       .  S
C37         C589   1.484       .  S
C37          N53   1.351   1_565  A
Co39        N235   2.102   1_554  S
Co39        N250   2.101   1_554  S
Co39       Cl516   2.459   1_455  S
N40         C517   1.352   1_545  A
C41         C617   1.484       .  S
C41         N478   1.350       .  A
Co43        N258   2.070       .  S
Co43        N266   2.088       .  S
Co43       Cl283   2.454   1_445  S
C45         C497   1.463       .  S
N46         N962   1.320       .  A
C49         C503   1.470       .  S
Cl50      Co1404   2.461       .  S
Cl50      Co1173   2.445   1_565  S
Cl50       Co505   2.444   1_655  S
Cl50       Co276   2.453   1_665  S
C51         C137   1.485       .  S
C51         N506   1.349       .  A
N54          C59   1.353       .  A
N54          C58   1.354       .  A
N54          H86   1.028       .  S
N55          C62   1.354       .  A
N55          C63   1.353       .  A
N56          C61   1.355       .  A
N56          C60   1.353       .  A
N56          H87   1.026       .  S
N57          C64   1.349       .  A
N57          C65   1.350       .  A
C58          C66   1.388       .  A
C58          C74   1.416       .  A
C59          C75   1.413       .  A
C59          C67   1.387       .  A
C60          C68   1.388       .  A
C60          C77   1.416       .  A
C61          C76   1.414       .  A
C61          C69   1.387       .  A
C62          C74   1.420       .  A
C62          C70   1.387       .  A
C63          C77   1.417       .  A
C63          C71   1.386       .  A
C64          C72   1.387       .  A
C64          C75   1.410       .  A
C65          C73   1.386       .  A
C65          C76   1.410       .  A
C66          H78   1.082       .  S
C66          C67   1.375       .  A
C67          H79   1.082       .  S
C68          H80   1.082       .  S
C68          C69   1.374       .  A
C69          H81   1.083       .  S
C70          H82   1.082       .  S
C70          C71   1.374       .  A
C71          H83   1.082       .  S
C72          H84   1.082       .  S
C72          C73   1.372       .  A
C73          H85   1.082       .  S
C74         C210   1.494       .  S
C75         C224   1.479       .  S
C76         C193   1.481       .  S
C77         C182   1.486       .  S
N88          C93   1.351       .  A
N88          C92   1.350       .  A
N88         H120   1.038       .  S
N89          C96   1.349       .  A
N89          C97   1.350       .  A
N90          C95   1.350       .  A
N90          C94   1.352       .  A
N90         H121   1.038       .  S
N91          C98   1.349       .  A
N91          C99   1.347       .  A
C92         C100   1.387       .  A
C92         C108   1.411       .  A
C93         C109   1.410       .  A
C93         C101   1.386       .  A
C94         C102   1.387       .  A
C94         C111   1.411       .  A
C95         C110   1.410       .  A
C95         C103   1.387       .  A
C96         C108   1.410       .  A
C96         C104   1.386       .  A
C97         C111   1.410       .  A
C97         C105   1.386       .  A
C98         C106   1.386       .  A
C98         C109   1.408       .  A
C99         C107   1.386       .  A
C99         C110   1.407       .  A
C100        H112   1.082       .  S
C100        C101   1.375       .  A
C101        H113   1.082       .  S
C102        H114   1.082       .  S
C102        C103   1.374       .  A
C103        H115   1.082       .  S
C104        H116   1.082       .  S
C104        C105   1.373       .  A
C105        H117   1.082       .  S
C106        H118   1.082       .  S
C106        C107   1.374       .  A
C107        H119   1.082       .  S
C108        C126   1.479       .  S
C109        C140   1.479       .  S
C110        C165   1.475       .  S
C111        C154   1.480       .  S
C122        H129   1.083       .  S
C122        C123   1.407       .  A
C122        C127   1.402       .  A
C123        C503   1.484       .  S
C123        C590   1.418       .  A
C124        C125   1.398       .  A
C124        C589   1.416   1_545  A
C124        N131   1.429       .  S
C125        H130   1.084       .  S
C125        C592   1.397   1_545  A
C126        C127   1.405       .  A
C126        C591   1.396       .  A
C127        N128   1.429       .  S
N128        O132   1.262       .  A
N128        O133   1.262       .  A
N131        O601   1.262       .  A
N131        O134   1.262       .  A
O135        N597   1.262       .  A
C136        H143   1.083       .  S
C136        C137   1.409       .  A
C136        C141   1.399       .  A
C137        C138   1.416       .  A
C138        C139   1.400       .  A
C138        N145   1.427       .  S
C139        H144   1.084       .  S
C139        C140   1.398       .  A
C140        C141   1.402       .  A
C141        N142   1.429       .  S
N142        O146   1.262       .  A
N142        O613   1.262       .  A
N145        O615   1.262       .  A
N145        O148   1.262       .  A
O147        N608   1.262       .  A
O149        N611   1.262       .  A
C150        H157   1.081       .  S
C150        C151   1.407       .  A
C150        C155   1.396       .  A
C151        C507   1.486       .  S
C151        C618   1.417       .  A
C152        C153   1.399       .  A
C152        C617   1.416       .  A
C152        N159   1.426       .  S
C153        H158   1.084       .  S
C153        C620   1.398       .  A
C154        C155   1.404       .  A
C154        C619   1.400       .  A
C155        N156   1.428       .  S
N156        O160   1.262       .  A
N156        O627   1.262       .  A
N159        O163   1.262       .  A
N159        O628   1.262       .  A
O161        N622   1.262       .  A
O162        N625   1.262       .  A
C164        H171   1.084       .  S
C164        C165   1.395       .  A
C164        C169   1.396       .  A
C165        C166   1.404       .  A
C166        C633   1.398       .  A
C166        N173   1.429       .  S
C167        H172   1.083       .  S
C167        C632   1.399       .  A
C167        C634   1.408   1_565  A
C168        C169   1.419       .  A
C168        C633   1.407       .  A
C169        N170   1.429       .  S
N170        O174   1.262       .  A
N170        O641   1.262       .  A
N173        O643   1.262       .  A
N173        O176   1.262       .  A
O175        N636   1.262       .  A
O177        N639   1.262       .  A
C178        H185   1.082       .  S
C178        C183   1.397       .  A
C178       C1111   1.405   1_455  A
C179        C948   1.492       .  S
C179        C180   1.417       .  A
C179       C1110   1.409       .  A
C180        C181   1.401       .  A
C180        N187   1.428       .  S
C181        H186   1.084       .  S
C181        C182   1.399       .  A
C182       C1115   1.406       .  A
C183       C1114   1.409       .  A
C183        N184   1.429       .  S
N184        O188   1.262       .  A
N184        O189   1.262       .  A
N187        O191   1.262       .  A
N187        O190   1.262       .  A
C192        H199   1.084       .  S
C192        C197   1.398       .  A
C192       C1125   1.398       .  A
C193        C194   1.406       .  A
C193       C1124   1.398       .  A
C194        C195   1.396       .  A
C194        N201   1.428       .  S
C195        H200   1.084       .  S
C195        C196   1.405       .  A
C196       C1129   1.417       .  A
C197       C1128   1.416       .  A
C197        N198   1.428       .  S
N198        O202   1.262       .  A
N198        O203   1.262       .  A
N201        O205   1.262       .  A
N201        O204   1.262       .  A
C206        H213   1.083       .  S
C206        C211   1.395       .  A
C206       C1139   1.406   1_455  A
C207        C953   1.480       .  S
C207        C208   1.415       .  A
C207       C1138   1.401       .  A
C208        C209   1.404       .  A
C208        N215   1.429       .  S
C209        H214   1.084       .  S
C209        C210   1.404       .  A
C210       C1143   1.411       .  A
C211       C1142   1.404   1_455  A
C211        N212   1.427       .  S
N212        O216   1.262       .  A
N212        O217   1.262       .  A
N215        O219   1.262       .  A
N215        O218   1.262       .  A
C220        H227   1.082       .  S
C220        C221   1.410       .  A
C220        C225   1.401       .  A
C221       C1154   1.414       .  A
C222        C223   1.401       .  A
C222       C1153   1.417   1_455  A
C222        N229   1.428       .  S
C223        H228   1.084       .  S
C223       C1156   1.398   1_455  A
C224        C225   1.404       .  A
C224       C1155   1.396       .  A
C225        N226   1.430       .  S
N226        O230   1.262       .  A
N226        O231   1.262       .  A
N229        O233   1.262       .  A
N229        O232   1.262       .  A
C234        C271   1.464       .  S
C234        C454   1.485       .  S
C234       N1184   1.351       .  A
N235        N252   1.327       .  A
N235       N1189   1.320   1_455  A
C236        C274   1.462       .  S
C236        N261   1.335       .  A
C236        H281   1.081       .  S
H237        C278   1.080       .  S
C238       C1174   1.464       .  S
C238        N262   1.340       .  A
C238        H267   1.079       .  S
Co239       N279   2.091       .  S
Co239       N255   2.087       .  S
Co239     Cl1681   2.458       .  S
N240        C278   1.339       .  A
N240        N713   1.318   1_545  A
N240       Co241   2.076   1_556  S
Co241       N244   2.080   1_554  S
Co241      Cl982   2.448   1_545  S
C242       C1170   1.464       .  S
C242        C429   1.479       .  S
C242        N280   1.350       .  A
N243        N716   1.317   1_545  A
N243        N273   1.323       .  A
N243       Co276   2.080   1_556  S
N244       N1194   1.318       .  A
N244        N280   1.320       .  A
N245        C740   1.351       .  A
N245        N255   1.326       .  A
H246        C271   1.081       .  S
N247        N706   1.317       .  A
N247        N268   1.324       .  A
N248       N1198   1.319       .  A
N248        N253   1.328       .  A
C249        C277   1.466       .  S
C249       C1344   1.489   1_455  S
C249       N1185   1.351   1_455  A
N250        C265   1.347       .  A
N250        N709   1.320       .  A
C251       C1186   1.464       .  S
C251        N279   1.344       .  A
C251        H285   1.081       .  S
N252       C1166   1.356   1_455  A
N253       C1181   1.353       .  A
C254       C1183   1.466       .  S
C254       C1372   1.492       .  S
C254        N275   1.355   1_655  A
N255        N727   1.320       .  A
N256        C282   1.343       .  A
N256        N724   1.320       .  A
N256       Co272   2.095       .  S
N257        C271   1.341       .  A
N257       N1167   1.321       .  A
N258        N722   1.320   1_545  A
N258        N286   1.322       .  A
H259        C282   1.082       .  S
H260        C277   1.080       .  S
N261        N721   1.320   1_545  A
N262       N1176   1.318   1_455  A
N262       Co276   2.075   1_556  S
N263        N275   1.324       .  A
N263       N1211   1.319   1_455  A
N263       Co272   2.098       .  S
C264        C744   1.462       .  S
C264        C401   1.486       .  S
C264        N268   1.354       .  A
C265        C284   1.473       .  S
C265        H269   1.080       .  S
N266        C277   1.340       .  A
N266       N1180   1.317   1_455  A
C270        C748   1.467       .  S
C270        C822   1.480       .  S
C270        N286   1.346   1_565  A
Co272      Cl749   2.456   1_455  S
N273        C750   1.350   1_545  A
C274        C850   1.485       .  S
C274        N711   1.353   1_545  A
C278        C730   1.460       .  S
N279       N1195   1.321       .  A
C282        C736   1.466       .  S
Cl283     Co1637   2.459       .  S
Cl283      Co940   2.444   1_565  S
Cl283      Co738   2.445   1_655  S
C284        C370   1.494       .  S
C284        N739   1.350       .  A
N287        C292   1.352       .  A
N287        C291   1.353       .  A
N287        H319   1.035       .  S
N288        C295   1.354       .  A
N288        C296   1.353       .  A
N289        C294   1.352       .  A
N289        C293   1.353       .  A
N289        H320   1.035       .  S
N290        C297   1.350       .  A
N290        C298   1.350       .  A
C291        C299   1.388       .  A
C291        C307   1.415       .  A
C292        C308   1.412       .  A
C292        C300   1.387       .  A
C293        C301   1.387       .  A
C293        C310   1.415       .  A
C294        C309   1.414       .  A
C294        C302   1.387       .  A
C295        C307   1.418       .  A
C295        C303   1.386       .  A
C296        C310   1.419       .  A
C296        C304   1.386       .  A
C297        C305   1.386       .  A
C297        C308   1.411       .  A
C298        C306   1.386       .  A
C298        C309   1.411       .  A
C299        H311   1.082       .  S
C299        C300   1.374       .  A
C300        H312   1.082       .  S
C301        H313   1.082       .  S
C301        C302   1.374       .  A
C302        H314   1.083       .  S
C303        H315   1.082       .  S
C303        C304   1.374       .  A
C304        H316   1.082       .  S
C305        H317   1.082       .  S
C305        C306   1.372       .  A
C306        H318   1.082       .  S
C307        C443   1.491       .  S
C308        C457   1.480       .  S
C309        C426   1.480       .  S
C310        C415   1.490       .  S
N321        C326   1.351       .  A
N321        C325   1.349       .  A
N321        H353   1.035       .  S
N322        C329   1.349       .  A
N322        C330   1.350       .  A
N323        C328   1.350       .  A
N323        C327   1.353       .  A
N323        H354   1.036       .  S
N324        C331   1.350       .  A
N324        C332   1.348       .  A
C325        C333   1.388       .  A
C325        C341   1.410       .  A
C326        C342   1.410       .  A
C326        C334   1.387       .  A
C327        C335   1.386       .  A
C327        C344   1.412       .  A
C328        C343   1.412       .  A
C328        C336   1.388       .  A
C329        C341   1.410       .  A
C329        C337   1.386       .  A
C330        C344   1.410       .  A
C330        C338   1.386       .  A
C331        C339   1.386       .  A
C331        C342   1.410       .  A
C332        C340   1.387       .  A
C332        C343   1.410       .  A
C333        H345   1.082       .  S
C333        C334   1.372       .  A
C334        H346   1.082       .  S
C335        H347   1.082       .  S
C335        C336   1.373       .  A
C336        H348   1.082       .  S
C337        H349   1.082       .  S
C337        C338   1.372       .  A
C338        H350   1.082       .  S
C339        H351   1.082       .  S
C339        C340   1.371       .  A
C340        H352   1.082       .  S
C341        C359   1.473       .  S
C342        C373   1.479       .  S
C343        C398   1.474       .  S
C344        C387   1.482       .  S
C355        H362   1.083       .  S
C355        C356   1.407       .  A
C355        C360   1.400       .  A
C356        C736   1.477       .  S
C356        C823   1.415       .  A
C357        C822   1.417   1_545  A
C357        C358   1.396       .  A
C357        N364   1.429       .  S
C358        H363   1.084       .  S
C358        C825   1.396       .  A
C359        C824   1.395       .  A
C359        C360   1.404       .  A
C360        N361   1.429       .  S
N361        O365   1.262       .  A
N361        O366   1.262       .  A
N364        O834   1.262       .  A
N364        O367   1.262       .  A
O368        N830   1.262       .  A
C369        H376   1.083       .  S
C369        C370   1.413       .  A
C369        C374   1.401       .  A
C370        C371   1.419       .  A
C371        C372   1.398       .  A
C371        N378   1.423       .  S
C372        H377   1.084       .  S
C372        C373   1.392       .  A
C373        C374   1.402       .  A
C374        N375   1.429       .  S
N375        O379   1.262       .  A
N375        O846   1.262       .  A
N378        O848   1.262       .  A
N378        O381   1.261       .  A
O380        N841   1.262       .  A
O382        N844   1.261       .  A
C383        H390   1.081       .  S
C383        C384   1.406       .  A
C383        C388   1.396       .  A
C384        C740   1.481       .  S
C384        C851   1.414       .  A
C385        C850   1.415   1_565  A
C385        C386   1.399       .  A
C385        N392   1.426       .  S
C386        H391   1.084       .  S
C386        C853   1.398   1_565  A
C387        C852   1.400       .  A
C387        C388   1.405       .  A
C388        N389   1.428       .  S
N389        O393   1.262       .  A
N389        O860   1.262       .  A
N392        O396   1.262       .  A
N392        O861   1.261       .  A
O394        N855   1.262       .  A
O395        N858   1.262       .  A
C397        H404   1.084       .  S
C397        C398   1.394       .  A
C397        C402   1.396       .  A
C398        C399   1.402       .  A
C399        C866   1.398       .  A
C399        N406   1.430       .  S
C400        H405   1.083       .  S
C400        C865   1.398       .  A
C400        C867   1.408   1_565  A
C401        C866   1.410       .  A
C401        C402   1.420       .  A
C402        N403   1.427       .  S
N403        O407   1.262       .  A
N403        O874   1.262       .  A
N406        O876   1.262       .  A
N406        O409   1.262       .  A
O408        N869   1.262       .  A
O410        N872   1.262       .  A
C411        H418   1.081       .  S
C411       C1344   1.407   1_455  A
C411        C416   1.399       .  A
C412       C1181   1.489       .  S
C412       C1343   1.406       .  A
C412        C413   1.414       .  A
C413        C414   1.401       .  A
C413        N420   1.427       .  S
C414        H419   1.084       .  S
C414        C415   1.401       .  A
C415       C1348   1.409       .  A
C416       C1347   1.405   1_455  A
C416        N417   1.428       .  S
N417        O421   1.262       .  A
N417        O422   1.262       .  A
N420        O424   1.262       .  A
N420        O423   1.262       .  A
C425        H432   1.084       .  S
C425       C1358   1.399   1_455  A
C425        C430   1.400       .  A
C426       C1357   1.400       .  A
C426        C427   1.406       .  A
C427        C428   1.394       .  A
C427        N434   1.428       .  S
C428        H433   1.084       .  S
C428        C429   1.406       .  A
C429       C1362   1.414       .  A
C430       C1361   1.418       .  A
C430        N431   1.428       .  S
N431        O435   1.262       .  A
N431        O436   1.262       .  A
N434        O438   1.262       .  A
N434        O437   1.262       .  A
C439        H446   1.083       .  S
C439       C1372   1.406   1_455  A
C439        C444   1.397       .  A
C440       C1186   1.485       .  S
C440       C1371   1.404       .  A
C440        C441   1.416       .  A
C441        C442   1.404       .  A
C441        N448   1.428       .  S
C442        H447   1.084       .  S
C442        C443   1.402       .  A
C443       C1376   1.408       .  A
C444       C1375   1.406   1_455  A
C444        N445   1.428       .  S
N445        O449   1.262       .  A
N445        O450   1.262       .  A
N448        O452   1.262       .  A
N448        O451   1.262       .  A
C453        H460   1.082       .  S
C453        C454   1.408       .  A
C453        C458   1.401       .  A
C454       C1387   1.415       .  A
C455       C1386   1.415   1_455  A
C455        C456   1.398       .  A
C455        N462   1.422       .  S
C456        H461   1.084       .  S
C456       C1389   1.395   1_455  A
C457       C1388   1.396       .  A
C457        C458   1.404       .  A
C458        N459   1.429       .  S
N459        O463   1.262       .  A
N459        O464   1.262       .  A
N462        O466   1.258       .  A
N462        O465   1.262       .  A
C467        C504   1.465       .  S
C467        C687   1.488       .  S
C467       N1417   1.351       .  A
N468        N485   1.325       .  A
N468       N1422   1.321   1_455  A
N468       Co738   2.098       .  S
C469        C507   1.463       .  S
C469        N494   1.336       .  A
C469        H514   1.081       .  S
H470        C511   1.079       .  S
C471       C1407   1.463       .  S
C471        N495   1.341       .  A
C471        H500   1.080       .  S
Co472       N723   2.093       .  S
Co472       N713   2.087       .  S
Co472       N512   2.078   1_556  S
Co472       N488   2.085   1_556  S
Co472      Cl982   2.457   1_556  S
N473        C511   1.334       .  A
N473       Co474   2.061       .  S
Co474       N477   2.087       .  S
Co474       N727   2.080       .  S
Co474       N714   2.079       .  S
Co474     Cl1681   2.447       .  S
C475       C1403   1.465       .  S
C475        C662   1.485       .  S
C475        N513   1.352       .  A
N476        N506   1.323       .  A
N476       Co509   2.084       .  S
N477       N1427   1.317       .  A
N477        N513   1.322       .  A
N478        N488   1.324       .  A
H479        C504   1.081       .  S
N480        N501   1.324       .  A
N480       Co705   2.086       .  S
N481       N1431   1.318       .  A
N481        N486   1.326       .  A
N481       Co707   2.080       .  S
C482        C510   1.465       .  S
C482       C1577   1.495       .  S
C482       N1418   1.355   1_455  A
N483        C498   1.341       .  A
N483       Co738   2.084       .  S
C484       C1419   1.462       .  S
C484        N512   1.344       .  A
C484        H518   1.081       .  S
N485       C1399   1.352   1_455  A
N486       C1414   1.351       .  A
C487       C1416   1.464       .  S
C487       C1605   1.478       .  S
C487        N508   1.349   1_655  A
N489        C515   1.341       .  A
N489       Co505   2.094       .  S
N490        C504   1.343       .  A
N490       N1400   1.320       .  A
N490       Co705   2.093       .  S
N491        N519   1.323       .  A
N491       Co742   2.072       .  S
H492        C515   1.081       .  S
H493        C510   1.080       .  S
N494       Co707   2.083       .  S
N495       N1409   1.318   1_455  A
N495       Co509   2.075       .  S
N496        N508   1.319       .  A
N496       N1444   1.318   1_455  A
N496       Co505   2.078       .  S
C497        C634   1.482       .  S
C497        N501   1.352   1_545  A
C498        C517   1.465       .  S
C498        H502   1.080       .  S
N499        C510   1.337       .  A
N499       N1413   1.318   1_455  A
N499       Co742   2.087       .  S
C503        N519   1.346       .  A
Co505       N701   2.091   1_554  S
Co505       N716   2.082   1_554  S
Co509       N724   2.071       .  S
Co509       N732   2.084       .  S
Co509      Cl749   2.445   1_455  S
N512       N1428   1.319       .  A
Cl516      Co938   2.451       .  S
Cl516     Co1639   2.453   1_554  S
Cl516      Co742   2.446   1_655  S
C517        C603   1.488       .  S
N520        C525   1.351       .  A
N520        C524   1.352       .  A
N520        H552   1.033       .  S
N521        C528   1.353       .  A
N521        C529   1.352       .  A
N522        C527   1.353       .  A
N522        C526   1.353       .  A
N522        H553   1.036       .  S
N523        C530   1.352       .  A
N523        C531   1.351       .  A
C524        C532   1.388       .  A
C524        C540   1.416       .  A
C525        C541   1.416       .  A
C525        C533   1.388       .  A
C526        C534   1.388       .  A
C526        C543   1.415       .  A
C527        C542   1.413       .  A
C527        C535   1.386       .  A
C528        C540   1.418       .  A
C528        C536   1.387       .  A
C529        C543   1.418       .  A
C529        C537   1.387       .  A
C530        C538   1.387       .  A
C530        C541   1.415       .  A
C531        C539   1.386       .  A
C531        C542   1.413       .  A
C532        H544   1.082       .  S
C532        C533   1.374       .  A
C533        H545   1.082       .  S
C534        H546   1.082       .  S
C534        C535   1.373       .  A
C535        H547   1.082       .  S
C536        H548   1.082       .  S
C536        C537   1.373       .  A
C537        H549   1.082       .  S
C538        H550   1.082       .  S
C538        C539   1.373       .  A
C539        H551   1.082       .  S
C540        C676   1.486       .  S
C541        C690   1.484       .  S
C542        C659   1.483       .  S
C543        C648   1.488       .  S
N554        C559   1.350   1_545  A
N554        C558   1.349   1_545  A
N554        H586   1.037       .  S
N555        C562   1.350       .  A
N555        C563   1.351   1_565  A
N556        C561   1.350   1_545  A
N556        C560   1.351   1_545  A
N556        H587   1.036       .  S
N557        C564   1.349       .  A
N557        C565   1.348       .  A
C558        C566   1.387       .  A
C558        C574   1.409       .  A
C559        C575   1.409   1_565  A
C559        C567   1.387       .  A
C560        C568   1.387       .  A
C560        C577   1.412       .  A
C561        C576   1.412   1_565  A
C561        C569   1.387       .  A
C562        C574   1.411       .  A
C562        C570   1.386   1_565  A
C563        C577   1.412   1_545  A
C563        C571   1.386       .  A
C564        C572   1.386       .  A
C564        C575   1.408       .  A
C565        C573   1.387       .  A
C565        C576   1.409       .  A
C566        H578   1.082       .  S
C566        C567   1.373       .  A
C567        H579   1.082       .  S
C568        H580   1.082       .  S
C568        C569   1.375       .  A
C569        H581   1.083       .  S
C570        H582   1.082       .  S
C570        C571   1.373       .  A
C571        H583   1.082       .  S
C572        H584   1.082       .  S
C572        C573   1.372       .  A
C573        H585   1.082       .  S
C574        C592   1.477       .  S
C575        C606   1.476       .  S
C576        C631   1.477       .  S
C577        C620   1.480       .  S
C588        H595   1.082       .  S
C588        C589   1.409       .  A
C588        C593   1.400       .  A
C590        C591   1.398       .  A
C590        N597   1.429       .  S
C591        H596   1.084       .  S
C592        C593   1.403       .  A
C593        N594   1.429       .  S
N594        O598   1.262       .  A
N594        O599   1.262       .  A
N597        O600   1.262       .  A
C602        H609   1.083       .  S
C602        C603   1.411   1_545  A
C602        C607   1.402       .  A
C603        C604   1.418       .  A
C604        C605   1.395       .  A
C604        N611   1.426       .  S
C605        H610   1.084       .  S
C605        C606   1.393   1_565  A
C606        C607   1.403       .  A
C607        N608   1.429       .  S
N608        O612   1.262       .  A
N611        O614   1.261       .  A
C616        H623   1.081       .  S
C616        C617   1.405   1_545  A
C616        C621   1.396       .  A
C618        C619   1.401       .  A
C618        N625   1.429       .  S
C619        H624   1.084       .  S
C620        C621   1.405   1_565  A
C621        N622   1.428       .  S
N622        O626   1.262       .  A
N625        O629   1.262       .  A
C630        H637   1.084       .  S
C630        C631   1.397       .  A
C630        C635   1.398       .  A
C631        C632   1.404   1_545  A
C632        N639   1.430       .  S
C633        H638   1.083       .  S
C634        C635   1.416       .  A
C635        N636   1.428       .  S
N636        O640   1.262       .  A
N639        O642   1.262       .  A
C644        H651   1.080       .  S
C644       C1577   1.408       .  A
C644        C649   1.399       .  A
C645       C1414   1.485       .  S
C645       C1576   1.405       .  A
C645        C646   1.415       .  A
C646        C647   1.400       .  A
C646        N653   1.428       .  S
C647        H652   1.084       .  S
C647        C648   1.400       .  A
C648       C1581   1.409       .  A
C649       C1580   1.405       .  A
C649        N650   1.428       .  S
N650        O654   1.262       .  A
N650        O655   1.262       .  A
N653        O657   1.262       .  A
N653        O656   1.262       .  A
C658        H665   1.084       .  S
C658       C1591   1.400       .  A
C658        C663   1.400       .  A
C659       C1590   1.400       .  A
C659        C660   1.405       .  A
C660        C661   1.396       .  A
C660        N667   1.428       .  S
C661        H666   1.084       .  S
C661        C662   1.406       .  A
C662       C1595   1.417       .  A
C663       C1594   1.416       .  A
C663        N664   1.428       .  S
N664        O668   1.262       .  A
N664        O669   1.262       .  A
N667        O671   1.262       .  A
N667        O670   1.262       .  A
C672        H679   1.084       .  S
C672       C1605   1.406   1_455  A
C672        C677   1.395       .  A
C673       C1419   1.484       .  S
C673       C1604   1.404       .  A
C673        C674   1.419       .  A
C674        C675   1.404       .  A
C674        N681   1.429       .  S
C675        H680   1.084       .  S
C675        C676   1.401       .  A
C676       C1609   1.405       .  A
C677       C1608   1.404       .  A
C677        N678   1.428       .  S
N678        O682   1.262       .  A
N678        O683   1.262       .  A
N681        O685   1.262       .  A
N681        O684   1.262       .  A
C686        H693   1.083       .  S
C686        C687   1.408       .  A
C686        C691   1.403       .  A
C687       C1620   1.415       .  A
C688       C1619   1.415   1_455  A
C688        C689   1.398       .  A
C688        N695   1.424       .  S
C689        H694   1.084       .  S
C689       C1622   1.395       .  A
C690       C1621   1.396       .  A
C690        C691   1.406       .  A
C691        N692   1.429       .  S
N692        O696   1.262       .  A
N692        O697   1.262       .  A
N695        O699   1.262       .  A
N695        O698   1.262       .  A
C700        C737   1.465       .  S
C700        C920   1.488       .  S
C700       N1650   1.352       .  A
N701        N718   1.325       .  A
N701       N1655   1.320   1_455  A
C702        C740   1.461       .  S
C702        N727   1.336       .  A
C702        H747   1.081       .  S
H703        C744   1.079       .  S
C704       C1640   1.466       .  S
C704        N728   1.343       .  A
C704        H733   1.080       .  S
Co705       N745   2.084       .  S
Co705       N721   2.091       .  S
Co705     Cl1215   2.458       .  S
N706        C744   1.338       .  A
N706       Co707   2.069   1_556  S
Co707       N710   2.086   1_554  S
Co707     Cl1448   2.448       .  S
C708       C1636   1.464       .  S
C708        C895   1.483       .  S
C708        N746   1.352       .  A
N709        N739   1.322       .  A
N709       Co742   2.085   1_556  S
N710       N1660   1.318       .  A
N710        N746   1.321       .  A
N711        N721   1.327       .  A
H712        C737   1.081       .  S
N713        N734   1.324       .  A
N714       N1664   1.317       .  A
N714        N719   1.327       .  A
C715        C743   1.462       .  S
C715       C1810   1.483       .  S
C715       N1651   1.351   1_455  A
N716        C731   1.342       .  A
C717       C1652   1.465       .  S
C717        N745   1.344       .  A
C717        H751   1.080       .  S
N718       C1632   1.351   1_455  A
N719       C1647   1.352       .  A
C720       C1649   1.463       .  S
C720       C1838   1.483       .  S
C720        N741   1.352   1_655  A
N722        C748   1.344       .  A
N722       Co738   2.102       .  S
N723        C737   1.342       .  A
N723       N1633   1.321       .  A
N724        N752   1.321       .  A
H725        C748   1.081       .  S
H726        C743   1.080       .  S
N728       N1642   1.317   1_455  A
N728       Co742   2.078   1_556  S
N729        N741   1.322       .  A
N729       N1677   1.319   1_455  A
N729       Co738   2.087       .  S
C730        C867   1.480       .  S
C730        N734   1.353   1_545  A
C731        C750   1.466       .  S
C731        H735   1.080       .  S
N732        C743   1.338       .  A
N732       N1646   1.318   1_455  A
C736        N752   1.346       .  A
N745       N1661   1.319       .  A
Cl749     Co1171   2.455       .  S
Cl749     Co1406   2.449       .  S
C750        C836   1.485       .  S
N753        C758   1.352       .  A
N753        C757   1.352       .  A
N753        H785   1.035       .  S
N754        C761   1.351       .  A
N754        C762   1.352       .  A
N755        C760   1.352       .  A
N755        C759   1.353       .  A
N755        H786   1.034       .  S
N756        C763   1.351       .  A
N756        C764   1.350       .  A
C757        C765   1.388       .  A
C757        C773   1.414       .  A
C758        C774   1.413       .  A
C758        C766   1.387       .  A
C759        C767   1.387       .  A
C759        C776   1.415       .  A
C760        C775   1.414       .  A
C760        C768   1.387       .  A
C761        C773   1.414       .  A
C761        C769   1.386       .  A
C762        C776   1.415       .  A
C762        C770   1.386       .  A
C763        C771   1.386       .  A
C763        C774   1.411       .  A
C764        C772   1.387       .  A
C764        C775   1.412       .  A
C765        H777   1.082       .  S
C765        C766   1.374       .  A
C766        H778   1.082       .  S
C767        H779   1.082       .  S
C767        C768   1.375       .  A
C768        H780   1.082       .  S
C769        H781   1.082       .  S
C769        C770   1.373       .  A
C770        H782   1.082       .  S
C771        H783   1.082       .  S
C771        C772   1.373       .  A
C772        H784   1.082       .  S
C773        C909   1.482       .  S
C774        C923   1.483       .  S
C775        C892   1.480       .  S
C776        C881   1.486       .  S
N787        C792   1.350       .  A
N787        C791   1.349       .  A
N787        H819   1.036       .  S
N788        C795   1.349       .  A
N788        C796   1.350       .  A
N789        C794   1.350       .  A
N789        C793   1.351       .  A
N789        H820   1.038       .  S
N790        C797   1.348       .  A
N790        C798   1.347       .  A
C791        C799   1.388   1_545  A
C791        C807   1.409       .  A
C792        C808   1.408       .  A
C792        C800   1.387   1_545  A
C793        C801   1.387   1_545  A
C793        C810   1.410       .  A
C794        C809   1.409       .  A
C794        C802   1.387   1_545  A
C795        C807   1.410       .  A
C795        C803   1.386       .  A
C796        C810   1.409       .  A
C796        C804   1.386       .  A
C797        C805   1.386       .  A
C797        C808   1.407       .  A
C798        C806   1.386       .  A
C798        C809   1.407       .  A
C799        H811   1.082       .  S
C799        C800   1.372       .  A
C800        H812   1.082       .  S
C801        H813   1.082       .  S
C801        C802   1.373       .  A
C802        H814   1.083       .  S
C803        H815   1.082       .  S
C803        C804   1.374       .  A
C804        H816   1.082       .  S
C805        H817   1.082       .  S
C805        C806   1.373       .  A
C806        H818   1.082       .  S
C807        C825   1.476       .  S
C808        C839   1.473       .  S
C809        C864   1.474       .  S
C810        C853   1.478       .  S
C821        H828   1.083       .  S
C821        C822   1.407       .  A
C821        C826   1.400       .  A
C823        C824   1.394       .  A
C823        N830   1.429       .  S
C824        H829   1.084       .  S
C825        C826   1.404   1_545  A
C826        N827   1.429       .  S
N827        O831   1.262       .  A
N827        O832   1.262       .  A
N830        O833   1.262       .  A
C835        H842   1.083       .  S
C835        C836   1.411   1_545  A
C835        C840   1.400       .  A
C836        C837   1.417       .  A
C837        C838   1.395       .  A
C837        N844   1.425       .  S
C838        H843   1.084       .  S
C838        C839   1.393   1_565  A
C839        C840   1.401       .  A
C840        N841   1.429       .  S
N841        O845   1.262       .  A
N844        O847   1.261       .  A
C849        H856   1.081       .  S
C849        C850   1.407       .  A
C849        C854   1.396       .  A
C851        C852   1.398       .  A
C851        N858   1.428       .  S
C852        H857   1.084       .  S
C853        C854   1.404       .  A
C854        N855   1.428       .  S
N855        O859   1.262       .  A
N858        O862   1.262       .  A
C863        H870   1.084       .  S
C863        C864   1.396       .  A
C863        C868   1.396       .  A
C864        C865   1.404   1_545  A
C865        N872   1.430       .  S
C866        H871   1.083       .  S
C867        C868   1.416       .  A
C868        N869   1.429       .  S
N869        O873   1.262       .  A
N872        O875   1.262       .  A
C877        H884   1.082       .  S
C877       C1810   1.404       .  A
C877        C882   1.398       .  A
C878       C1647   1.490       .  S
C878       C1809   1.407       .  A
C878        C879   1.417       .  A
C879        C880   1.402       .  A
C879        N886   1.428       .  S
C880        H885   1.084       .  S
C880        C881   1.400       .  A
C881       C1814   1.405       .  A
C882       C1813   1.409       .  A
C882        N883   1.429       .  S
N883        O887   1.262       .  A
N883        O888   1.262       .  A
N886        O890   1.262       .  A
N886        O889   1.262       .  A
C891        H898   1.084       .  S
C891       C1824   1.400       .  A
C891        C896   1.402       .  A
C892       C1823   1.399       .  A
C892        C893   1.405       .  A
C893        C894   1.395       .  A
C893        N900   1.428       .  S
C894        H899   1.084       .  S
C894        C895   1.406       .  A
C895       C1828   1.416       .  A
C896       C1827   1.417       .  A
C896        N897   1.428       .  S
N897        O901   1.262       .  A
N897        O902   1.262       .  A
N900        O904   1.262       .  A
N900        O903   1.262       .  A
C905        H912   1.084       .  S
C905       C1838   1.405   1_455  A
C905        C910   1.397       .  A
C906       C1652   1.483       .  S
C906       C1837   1.406       .  A
C906        C907   1.417       .  A
C907        C908   1.401       .  A
C907        N914   1.427       .  S
C908        H913   1.084       .  S
C908        C909   1.399       .  A
C909       C1842   1.404       .  A
C910       C1841   1.407   1_455  A
C910        N911   1.428       .  S
N911        O915   1.262       .  A
N911        O916   1.262       .  A
N914        O918   1.261       .  A
N914        O917   1.262       .  A
C919        H926   1.083       .  S
C919        C920   1.408       .  A
C919        C924   1.403       .  A
C920       C1853   1.415       .  A
C921       C1852   1.415   1_455  A
C921        C922   1.398       .  A
C921        N928   1.425       .  S
C922        H927   1.084       .  S
C922       C1855   1.395   1_455  A
C923       C1854   1.396       .  A
C923        C924   1.405       .  A
C924        N925   1.429       .  S
N925        O929   1.262       .  A
N925        O930   1.262       .  A
N928        O932   1.262       .  A
N928        O931   1.262       .  A
C933        C970   1.465       .  S
C933       C1153   1.489       .  S
N934        N951   1.326       .  A
N934      Co1204   2.100       .  S
C935        C973   1.462   1_545  S
C935        N960   1.337       .  A
C935        H980   1.081       .  S
H936        C977   1.079       .  S
C937        N961   1.340       .  A
C937        H966   1.079       .  S
Co938      N1189   2.078   1_554  S
Co938      N1179   2.088   1_554  S
Co938       N978   2.081       .  S
Co938       N954   2.076       .  S
N939        C977   1.335       .  A
N939       N1412   1.318   1_545  A
N939       Co940   2.067       .  S
Co940       N943   2.084       .  S
Co940      N1193   2.083       .  S
Co940      N1180   2.079       .  S
C941       C1128   1.479       .  S
C941        N979   1.351   1_455  A
N942       N1415   1.318   1_545  A
N942        N972   1.323       .  A
N942       Co975   2.083       .  S
N943        N979   1.321       .  A
N944       C1439   1.348       .  A
N944        N954   1.323       .  A
H945        C970   1.081       .  S
N946       N1405   1.318       .  A
N946        N967   1.325       .  A
N946      Co1171   2.091       .  S
N947        N952   1.327       .  A
N947      Co1173   2.085       .  S
C948        C976   1.464       .  S
N949        C964   1.343       .  A
N949       N1408   1.319       .  A
N949      Co1204   2.088       .  S
C950        N978   1.342       .  A
C950        H984   1.079       .  S
C953        N974   1.352       .  A
N954       N1426   1.319       .  A
N955        C981   1.345       .  A
N955       N1423   1.321       .  A
N955       Co971   2.102       .  S
N956        C970   1.341       .  A
N956      Co1171   2.092       .  S
N957       N1421   1.320   1_545  A
N957        N985   1.321       .  A
N957      Co1208   2.070       .  S
H958        C981   1.082       .  S
H959        C976   1.080       .  S
N960       N1420   1.321   1_545  A
N960      Co1173   2.084       .  S
N961       Co975   2.072       .  S
N962        N974   1.324       .  A
N962       Co971   2.094       .  S
C963       C1443   1.460       .  S
C963       C1100   1.485       .  S
C963        N967   1.356       .  A
C964        C983   1.467       .  S
C964        H968   1.080       .  S
N965        C976   1.338       .  A
N965      Co1208   2.086       .  S
C969       C1447   1.468       .  S
C969       C1521   1.479       .  S
C969        N985   1.346   1_565  A
Co971      N1167   2.094   1_554  S
Co971      N1182   2.089   1_554  S
Co971     Cl1448   2.451       .  S
N972       C1449   1.351   1_545  A
C973       C1549   1.485       .  S
C973       N1410   1.352       .  A
Co975      N1190   2.072       .  S
Co975      N1198   2.086       .  S
Co975     Cl1215   2.450   1_545  S
C977       C1429   1.458       .  S
C981       C1435   1.467       .  S
Cl982     Co1437   2.448       .  S
Cl982     Co1208   2.451   1_565  S
C983       C1069   1.487       .  S
C983       N1438   1.351       .  A
N986        C991   1.355       .  A
N986        C990   1.354       .  A
N986       H1018   1.018       .  S
N987        C994   1.352       .  A
N987        C995   1.352       .  A
N988        C993   1.355   1_455  A
N988        C992   1.355   1_455  A
N988       H1019   1.028       .  S
N989        C996   1.350   1_655  A
N989        C997   1.349   1_655  A
C990        C998   1.388       .  A
C990       C1006   1.419       .  A
C991       C1007   1.420       .  A
C991        C999   1.388       .  A
C992       C1000   1.388       .  A
C992       C1009   1.417   1_655  A
C993       C1008   1.415   1_655  A
C993       C1001   1.387       .  A
C994       C1006   1.419       .  A
C994       C1002   1.387       .  A
C995       C1009   1.419   1_655  A
C995       C1003   1.387       .  A
C996       C1004   1.387       .  A
C996       C1007   1.416   1_455  A
C997       C1005   1.387       .  A
C997       C1008   1.413       .  A
C998       H1010   1.082       .  S
C998        C999   1.373       .  A
C999       H1011   1.082       .  S
C1000      H1012   1.082       .  S
C1000      C1001   1.371       .  A
C1001      H1013   1.083       .  S
C1002      H1014   1.082       .  S
C1002      C1003   1.372       .  A
C1003      H1015   1.082   1_655  S
C1004      H1016   1.082       .  S
C1004      C1005   1.373       .  A
C1005      H1017   1.082       .  S
C1006      C1142   1.485       .  S
C1007      C1156   1.485       .  S
C1008      C1125   1.479       .  S
C1009      C1114   1.488       .  S
N1020      C1025   1.350       .  A
N1020      C1024   1.349       .  A
N1020      H1052   1.037       .  S
N1021      C1028   1.349       .  A
N1021      C1029   1.349       .  A
N1022      C1027   1.350       .  A
N1022      C1026   1.351       .  A
N1022      H1053   1.038       .  S
N1023      C1030   1.349       .  A
N1023      C1031   1.347       .  A
C1024      C1032   1.387       .  A
C1024      C1040   1.409       .  A
C1025      C1041   1.408       .  A
C1025      C1033   1.386       .  A
C1026      C1034   1.387       .  A
C1026      C1043   1.410       .  A
C1027      C1042   1.409       .  A
C1027      C1035   1.387       .  A
C1028      C1040   1.409       .  A
C1028      C1036   1.386       .  A
C1029      C1043   1.410       .  A
C1029      C1037   1.386       .  A
C1030      C1038   1.386       .  A
C1030      C1041   1.407       .  A
C1031      C1039   1.387       .  A
C1031      C1042   1.407       .  A
C1032      H1044   1.082       .  S
C1032      C1033   1.373       .  A
C1033      H1045   1.082       .  S
C1034      H1046   1.082       .  S
C1034      C1035   1.373       .  A
C1035      H1047   1.082       .  S
C1036      H1048   1.082       .  S
C1036      C1037   1.373       .  A
C1037      H1049   1.082       .  S
C1038      H1050   1.082       .  S
C1038      C1039   1.371       .  A
C1039      H1051   1.082       .  S
C1040      C1058   1.477       .  S
C1041      C1072   1.476       .  S
C1042      C1097   1.472       .  S
C1043      C1086   1.480       .  S
C1054      H1061   1.083       .  S
C1054      C1055   1.406       .  A
C1054      C1059   1.402       .  A
C1055      C1435   1.478       .  S
C1055      C1522   1.415       .  A
C1056      C1521   1.417   1_545  A
C1056      C1057   1.395       .  A
C1056      N1063   1.429       .  S
C1057      H1062   1.084       .  S
C1057      C1524   1.395   1_545  A
C1058      C1523   1.395       .  A
C1058      C1059   1.405       .  A
C1059      N1060   1.429       .  S
N1060      O1064   1.262       .  A
N1060      O1065   1.262       .  A
N1063      O1533   1.262       .  A
N1063      O1066   1.262       .  A
O1067      N1529   1.261       .  A
C1068      H1075   1.084       .  S
C1068      C1069   1.410       .  A
C1068      C1073   1.398       .  A
C1069      C1070   1.418       .  A
C1070      C1071   1.398       .  A
C1070      N1077   1.426       .  S
C1071      H1076   1.084       .  S
C1071      C1072   1.395       .  A
C1072      C1073   1.402       .  A
C1073      N1074   1.430       .  S
N1074      O1078   1.262       .  A
N1074      O1545   1.262       .  A
N1077      O1547   1.262       .  A
N1077      O1080   1.261       .  A
O1079      N1540   1.262       .  A
O1081      N1543   1.261       .  A
C1082      H1089   1.083       .  S
C1082      C1083   1.403       .  A
C1082      C1087   1.396       .  A
C1083      C1439   1.475       .  S
C1083      C1550   1.414       .  A
C1084      C1549   1.415       .  A
C1084      C1085   1.400       .  A
C1084      N1091   1.427       .  S
C1085      H1090   1.084       .  S
C1085      C1552   1.399   1_565  A
C1086      C1551   1.400       .  A
C1086      C1087   1.407       .  A
C1087      N1088   1.428       .  S
N1088      O1092   1.262       .  A
N1088      O1559   1.262       .  A
N1091      O1095   1.262       .  A
N1091      O1560   1.262       .  A
O1093      N1554   1.262       .  A
O1094      N1557   1.261       .  A
C1096      H1103   1.084       .  S
C1096      C1097   1.393       .  A
C1096      C1101   1.396       .  A
C1097      C1098   1.402       .  A
C1098      C1565   1.397       .  A
C1098      N1105   1.429       .  S
C1099      H1104   1.083       .  S
C1099      C1564   1.399       .  A
C1099      C1566   1.408   1_565  A
C1100      C1565   1.409       .  A
C1100      C1101   1.420       .  A
C1101      N1102   1.427       .  S
N1102      O1106   1.262       .  A
N1102      O1573   1.262       .  A
N1105      O1575   1.262       .  A
N1105      O1108   1.262       .  A
O1107      N1568   1.262       .  A
O1109      N1571   1.262       .  A
C1110      H1117   1.081       .  S
C1110      C1115   1.400       .  A
C1111      C1112   1.416       .  A
C1112      C1113   1.400       .  A
C1112      N1119   1.428       .  S
C1113      H1118   1.084       .  S
C1113      C1114   1.401   1_655  A
C1115      N1116   1.429       .  S
N1116      O1120   1.262       .  A
N1116      O1121   1.262       .  A
N1119      O1123   1.262       .  A
N1119      O1122   1.262       .  A
C1124      H1131   1.084       .  S
C1124      C1129   1.399       .  A
C1125      C1126   1.405   1_455  A
C1126      C1127   1.394       .  A
C1126      N1133   1.428       .  S
C1127      H1132   1.084       .  S
C1127      C1128   1.405   1_655  A
C1129      N1130   1.427       .  S
N1130      O1134   1.262       .  A
N1130      O1135   1.262       .  A
N1133      O1137   1.262       .  A
N1133      O1136   1.262       .  A
C1138      H1145   1.084       .  S
C1138      C1143   1.397       .  A
C1139      C1140   1.421       .  A
C1140      C1141   1.404       .  A
C1140      N1147   1.427       .  S
C1141      H1146   1.084       .  S
C1141      C1142   1.399       .  A
C1143      N1144   1.428       .  S
N1144      O1148   1.261       .  A
N1144      O1149   1.262       .  A
N1147      O1151   1.262       .  A
N1147      O1150   1.262       .  A
C1152      H1159   1.082       .  S
C1152      C1153   1.409       .  A
C1152      C1157   1.401       .  A
C1154      C1155   1.398       .  A
C1154      N1161   1.425       .  S
C1155      H1160   1.084       .  S
C1156      C1157   1.404       .  A
C1157      N1158   1.429       .  S
N1158      O1162   1.262       .  A
N1158      O1163   1.262       .  A
N1161      O1165   1.262       .  A
N1161      O1164   1.262       .  A
C1166      C1203   1.461       .  S
C1166      C1386   1.492       .  S
N1167      N1184   1.325       .  A
C1168      C1206   1.465       .  S
C1168      N1193   1.338       .  A
C1168      H1213   1.081       .  S
H1169      C1210   1.080       .  S
C1170      N1194   1.342       .  A
C1170      H1199   1.080       .  S
Co1171     N1211   2.086       .  S
Co1171     N1187   2.086       .  S
N1172      C1210   1.337       .  A
N1172      N1645   1.319   1_545  A
N1172     Co1173   2.075   1_556  S
Co1173     N1176   2.089   1_554  S
C1174      C1361   1.485       .  S
C1174      N1212   1.353   1_455  A
N1175      N1648   1.319   1_545  A
N1175      N1205   1.325       .  A
N1175     Co1208   2.089   1_556  S
N1176      N1212   1.322       .  A
N1177      C1672   1.350       .  A
N1177      N1187   1.326       .  A
H1178      C1203   1.081       .  S
N1179      N1638   1.318       .  A
N1179      N1200   1.325       .  A
N1180      N1185   1.326       .  A
C1181      C1209   1.462       .  S
N1182      C1197   1.343       .  A
N1182      N1641   1.318       .  A
C1183      N1211   1.343       .  A
C1183      H1217   1.079       .  S
C1186      N1207   1.352       .  A
N1187      N1659   1.320       .  A
N1188      C1214   1.346       .  A
N1188      N1656   1.321       .  A
N1188     Co1204   2.106       .  S
N1189      C1203   1.338       .  A
N1190      N1654   1.320   1_545  A
N1190      N1218   1.322       .  A
H1191      C1214   1.081       .  S
H1192      C1209   1.081       .  S
N1193      N1653   1.319   1_545  A
N1194     Co1208   2.077   1_556  S
N1195      N1207   1.324       .  A
N1195     Co1204   2.095       .  S
C1196      C1676   1.462       .  S
C1196      C1333   1.484       .  S
C1196      N1200   1.354       .  A
C1197      C1216   1.466       .  S
C1197      H1201   1.080       .  S
N1198      C1209   1.339       .  A
C1202      C1680   1.468       .  S
C1202      C1754   1.482       .  S
C1202      N1218   1.347   1_565  A
Co1204    Cl1681   2.453       .  S
N1205      C1682   1.353   1_545  A
C1206      C1782   1.482       .  S
C1206      N1643   1.349   1_545  A
C1210      C1662   1.459       .  S
C1214      C1668   1.470       .  S
Cl1215    Co1670   2.447       .  S
C1216      C1302   1.490       .  S
C1216      N1671   1.352       .  A
N1219      C1224   1.354       .  A
N1219      C1223   1.356       .  A
N1219      H1251   1.033       .  S
N1220      C1227   1.352       .  A
N1220      C1228   1.351       .  A
N1221      C1226   1.355       .  A
N1221      C1225   1.353       .  A
N1221      H1252   1.032   1_655  S
N1222      C1229   1.349       .  A
N1222      C1230   1.350       .  A
C1223      C1231   1.387       .  A
C1223      C1239   1.419       .  A
C1224      C1240   1.419       .  A
C1224      C1232   1.388       .  A
C1225      C1233   1.388       .  A
C1225      C1242   1.419       .  A
C1226      C1241   1.418       .  A
C1226      C1234   1.387       .  A
C1227      C1239   1.417       .  A
C1227      C1235   1.386       .  A
C1228      C1242   1.417       .  A
C1228      C1236   1.387       .  A
C1229      C1237   1.388       .  A
C1229      C1240   1.413       .  A
C1230      C1238   1.386       .  A
C1230      C1241   1.413       .  A
C1231      H1243   1.082       .  S
C1231      C1232   1.373       .  A
C1232      H1244   1.082       .  S
C1233      H1245   1.082       .  S
C1233      C1234   1.373       .  A
C1234      H1246   1.082       .  S
C1235      H1247   1.082       .  S
C1235      C1236   1.372       .  A
C1236      H1248   1.082       .  S
C1237      H1249   1.082       .  S
C1237      C1238   1.369       .  A
C1238      H1250   1.082       .  S
C1239      C1375   1.490       .  S
C1240      C1389   1.481       .  S
C1241      C1358   1.484       .  S
C1242      C1347   1.485       .  S
N1253      C1258   1.352       .  A
N1253      C1257   1.349       .  A
N1253      H1285   1.037       .  S
N1254      C1261   1.348       .  A
N1254      C1262   1.350       .  A
N1255      C1260   1.349       .  A
N1255      C1259   1.353       .  A
N1255      H1286   1.038       .  S
N1256      C1263   1.350       .  A
N1256      C1264   1.348       .  A
C1257      C1265   1.389       .  A
C1257      C1273   1.411       .  A
C1258      C1274   1.409       .  A
C1258      C1266   1.386       .  A
C1259      C1267   1.387       .  A
C1259      C1276   1.411       .  A
C1260      C1275   1.410       .  A
C1260      C1268   1.387       .  A
C1261      C1273   1.410       .  A
C1261      C1269   1.387       .  A
C1262      C1276   1.411       .  A
C1262      C1270   1.385       .  A
C1263      C1271   1.385       .  A
C1263      C1274   1.409       .  A
C1264      C1272   1.387       .  A
C1264      C1275   1.409       .  A
C1265      H1277   1.082       .  S
C1265      C1266   1.374       .  A
C1266      H1278   1.082       .  S
C1267      H1279   1.082       .  S
C1267      C1268   1.373       .  A
C1268      H1280   1.082       .  S
C1269      H1281   1.082       .  S
C1269      C1270   1.374       .  A
C1270      H1282   1.082       .  S
C1271      H1283   1.082       .  S
C1271      C1272   1.372       .  A
C1272      H1284   1.082       .  S
C1273      C1291   1.474       .  S
C1274      C1305   1.481       .  S
C1275      C1330   1.473       .  S
C1276      C1319   1.485       .  S
C1287      H1294   1.083       .  S
C1287      C1288   1.405       .  A
C1287      C1292   1.400       .  A
C1288      C1668   1.477       .  S
C1288      C1755   1.418       .  A
C1289      C1754   1.417   1_545  A
C1289      C1290   1.395       .  A
C1289      N1296   1.427       .  S
C1290      H1295   1.084       .  S
C1290      C1757   1.393   1_545  A
C1291      C1756   1.394       .  A
C1291      C1292   1.405       .  A
C1292      N1293   1.429       .  S
N1293      O1297   1.262       .  A
N1293      O1298   1.262       .  A
N1296      O1766   1.262       .  A
N1296      O1299   1.261       .  A
O1300      N1762   1.262       .  A
C1301      H1308   1.083       .  S
C1301      C1302   1.409       .  A
C1301      C1306   1.401       .  A
C1302      C1303   1.418       .  A
C1303      C1304   1.400       .  A
C1303      N1310   1.426       .  S
C1304      H1309   1.084       .  S
C1304      C1305   1.396       .  A
C1305      C1306   1.403       .  A
C1306      N1307   1.429       .  S
N1307      O1311   1.262       .  A
N1307      O1778   1.262       .  A
N1310      O1780   1.262       .  A
N1310      O1313   1.261       .  A
O1312      N1773   1.262       .  A
O1314      N1776   1.262       .  A
C1315      H1322   1.083       .  S
C1315      C1316   1.404       .  A
C1315      C1320   1.398       .  A
C1316      C1672   1.481       .  S
C1316      C1783   1.414       .  A
C1317      C1782   1.417   1_565  A
C1317      C1318   1.398       .  A
C1317      N1324   1.426       .  S
C1318      H1323   1.084       .  S
C1318      C1785   1.397   1_565  A
C1319      C1784   1.401       .  A
C1319      C1320   1.408       .  A
C1320      N1321   1.428       .  S
N1321      O1325   1.262       .  A
N1321      O1792   1.262       .  A
N1324      O1328   1.262       .  A
N1324      O1793   1.261       .  A
O1326      N1787   1.262       .  A
O1327      N1790   1.262       .  A
C1329      H1336   1.084       .  S
C1329      C1330   1.394       .  A
C1329      C1334   1.395       .  A
C1330      C1331   1.403       .  A
C1331      C1798   1.399       .  A
C1331      N1338   1.430       .  S
C1332      H1337   1.084       .  S
C1332      C1797   1.398       .  A
C1332      C1799   1.408       .  A
C1333      C1798   1.410       .  A
C1333      C1334   1.418       .  A
C1334      N1335   1.428       .  S
N1335      O1339   1.262       .  A
N1335      O1806   1.262       .  A
N1338      O1808   1.262       .  A
N1338      O1341   1.262       .  A
O1340      N1801   1.262       .  A
O1342      N1804   1.262       .  A
C1343      H1350   1.080       .  S
C1343      C1348   1.401       .  A
C1344      C1345   1.418       .  A
C1345      C1346   1.400       .  A
C1345      N1352   1.428       .  S
C1346      H1351   1.084       .  S
C1346      C1347   1.398       .  A
C1348      N1349   1.429       .  S
N1349      O1353   1.262       .  A
N1349      O1354   1.262       .  A
N1352      O1356   1.262       .  A
N1352      O1355   1.262       .  A
C1357      H1364   1.084       .  S
C1357      C1362   1.399       .  A
C1358      C1359   1.406       .  A
C1359      C1360   1.395       .  A
C1359      N1366   1.428       .  S
C1360      H1365   1.084       .  S
C1360      C1361   1.406   1_655  A
C1362      N1363   1.428       .  S
N1363      O1367   1.262       .  A
N1363      O1368   1.262       .  A
N1366      O1370   1.262       .  A
N1366      O1369   1.262       .  A
C1371      H1378   1.084       .  S
C1371      C1376   1.399       .  A
C1372      C1373   1.420       .  A
C1373      C1374   1.405       .  A
C1373      N1380   1.428       .  S
C1374      H1379   1.084       .  S
C1374      C1375   1.400       .  A
C1376      N1377   1.428       .  S
N1377      O1381   1.261       .  A
N1377      O1382   1.262       .  A
N1380      O1384   1.262       .  A
N1380      O1383   1.262       .  A
C1385      H1392   1.081       .  S
C1385      C1386   1.411       .  A
C1385      C1390   1.401       .  A
C1387      C1388   1.399       .  A
C1387      N1394   1.426       .  S
C1388      H1393   1.084       .  S
C1389      C1390   1.402       .  A
C1390      N1391   1.429       .  S
N1391      O1395   1.262       .  A
N1391      O1396   1.262       .  A
N1394      O1398   1.262       .  A
N1394      O1397   1.262       .  A
C1399      C1436   1.465       .  S
C1399      C1619   1.490       .  S
N1400      N1417   1.326       .  A
N1400     Co1670   2.092       .  S
C1401      C1439   1.461       .  S
C1401      N1426   1.338       .  A
C1401      H1446   1.081       .  S
H1402      C1443   1.078       .  S
C1403      N1427   1.342       .  A
C1403      H1432   1.080       .  S
Co1404     N1655   2.093   1_554  S
Co1404     N1645   2.080   1_554  S
Co1404     N1444   2.079       .  S
Co1404     N1420   2.093       .  S
N1405      C1443   1.335       .  A
N1405     Co1406   2.068       .  S
Co1406     N1409   2.086       .  S
Co1406     N1659   2.086       .  S
Co1406     N1646   2.080       .  S
C1407      C1594   1.481       .  S
C1407      N1445   1.352   1_455  A
N1408      N1438   1.322       .  A
N1408     Co1441   2.084       .  S
N1409      N1445   1.322       .  A
N1410      N1420   1.327       .  A
H1411      C1436   1.081       .  S
N1412      N1433   1.326       .  A
N1412     Co1637   2.095       .  S
N1413      N1418   1.329       .  A
N1413     Co1639   2.093   1_554  S
C1414      C1442   1.462       .  S
N1415      C1430   1.340       .  A
N1415     Co1670   2.078       .  S
C1416      N1444   1.343       .  A
C1416      H1450   1.080       .  S
C1419      N1440   1.353       .  A
N1421      C1447   1.344       .  A
N1421     Co1437   2.099       .  S
N1422      C1436   1.343       .  A
N1422     Co1637   2.090       .  S
N1423      N1451   1.322       .  A
N1423     Co1674   2.075       .  S
H1424      C1447   1.081       .  S
H1425      C1442   1.080       .  S
N1426     Co1639   2.079   1_554  S
N1427     Co1441   2.075       .  S
N1428      N1440   1.322       .  A
N1428     Co1437   2.094       .  S
C1429      C1566   1.484       .  S
C1429      N1433   1.356   1_545  A
C1430      C1449   1.462       .  S
C1430      H1434   1.080       .  S
N1431      C1442   1.338       .  A
N1431     Co1674   2.084       .  S
C1435      N1451   1.346       .  A
Co1437     N1633   2.094   1_554  S
Co1437     N1648   2.089   1_554  S
Co1441     N1656   2.063       .  S
Co1441     N1664   2.088       .  S
Co1441    Cl1681   2.448       .  S
Cl1448    Co1674   2.449       .  S
C1449      C1535   1.480       .  S
N1452      C1457   1.353       .  A
N1452      C1456   1.351       .  A
N1452      H1484   1.034       .  S
N1453      C1460   1.351       .  A
N1453      C1461   1.353       .  A
N1454      C1459   1.353       .  A
N1454      C1458   1.355       .  A
N1454      H1485   1.035       .  S
N1455      C1462   1.351       .  A
N1455      C1463   1.350       .  A
C1456      C1464   1.388   1_455  A
C1456      C1472   1.414       .  A
C1457      C1473   1.413       .  A
C1457      C1465   1.387   1_455  A
C1458      C1466   1.387   1_455  A
C1458      C1475   1.418       .  A
C1459      C1474   1.416       .  A
C1459      C1467   1.387   1_455  A
C1460      C1472   1.415       .  A
C1460      C1468   1.387       .  A
C1461      C1475   1.415       .  A
C1461      C1469   1.386       .  A
C1462      C1470   1.385       .  A
C1462      C1473   1.411       .  A
C1463      C1471   1.387       .  A
C1463      C1474   1.412       .  A
C1464      H1476   1.082       .  S
C1464      C1465   1.374       .  A
C1465      H1477   1.082       .  S
C1466      H1478   1.082       .  S
C1466      C1467   1.375       .  A
C1467      H1479   1.082       .  S
C1468      H1480   1.082       .  S
C1468      C1469   1.373       .  A
C1469      H1481   1.082       .  S
C1470      H1482   1.082       .  S
C1470      C1471   1.372       .  A
C1471      H1483   1.082       .  S
C1472      C1608   1.479       .  S
C1473      C1622   1.484       .  S
C1474      C1591   1.483       .  S
C1475      C1580   1.490       .  S
N1486      C1491   1.350   1_545  A
N1486      C1490   1.348   1_545  A
N1486      H1518   1.037       .  S
N1487      C1494   1.349       .  A
N1487      C1495   1.350       .  A
N1488      C1493   1.350       .  A
N1488      C1492   1.352       .  A
N1488      H1519   1.037       .  S
N1489      C1496   1.348       .  A
N1489      C1497   1.347       .  A
C1490      C1498   1.388       .  A
C1490      C1506   1.407       .  A
C1491      C1507   1.406   1_565  A
C1491      C1499   1.386       .  A
C1492      C1500   1.386   1_545  A
C1492      C1509   1.410       .  A
C1493      C1508   1.411       .  A
C1493      C1501   1.388   1_545  A
C1494      C1506   1.410   1_545  A
C1494      C1502   1.386       .  A
C1495      C1509   1.411       .  A
C1495      C1503   1.386       .  A
C1496      C1504   1.386       .  A
C1496      C1507   1.407       .  A
C1497      C1505   1.387       .  A
C1497      C1508   1.407       .  A
C1498      H1510   1.082       .  S
C1498      C1499   1.371       .  A
C1499      H1511   1.082       .  S
C1500      H1512   1.082       .  S
C1500      C1501   1.373       .  A
C1501      H1513   1.082       .  S
C1502      H1514   1.082       .  S
C1502      C1503   1.374       .  A
C1503      H1515   1.082       .  S
C1504      H1516   1.083       .  S
C1504      C1505   1.373       .  A
C1505      H1517   1.082       .  S
C1506      C1524   1.473       .  S
C1507      C1538   1.473       .  S
C1508      C1563   1.473       .  S
C1509      C1552   1.483       .  S
C1520      H1527   1.083       .  S
C1520      C1521   1.407       .  A
C1520      C1525   1.400       .  A
C1522      C1523   1.395       .  A
C1522      N1529   1.428       .  S
C1523      H1528   1.084       .  S
C1524      C1525   1.404       .  A
C1525      N1526   1.429       .  S
N1526      O1530   1.262       .  A
N1526      O1531   1.262       .  A
N1529      O1532   1.262       .  A
C1534      H1541   1.082       .  S
C1534      C1535   1.408   1_545  A
C1534      C1539   1.400       .  A
C1535      C1536   1.415       .  A
C1536      C1537   1.394       .  A
C1536      N1543   1.425       .  S
C1537      H1542   1.084       .  S
C1537      C1538   1.393   1_565  A
C1538      C1539   1.403       .  A
C1539      N1540   1.429       .  S
N1540      O1544   1.262       .  A
N1543      O1546   1.261       .  A
C1548      H1555   1.082       .  S
C1548      C1549   1.406   1_545  A
C1548      C1553   1.397       .  A
C1550      C1551   1.397       .  A
C1550      N1557   1.429       .  S
C1551      H1556   1.084       .  S
C1552      C1553   1.406       .  A
C1553      N1554   1.429       .  S
N1554      O1558   1.262       .  A
N1557      O1561   1.262       .  A
C1562      H1569   1.084       .  S
C1562      C1563   1.393       .  A
C1562      C1567   1.395       .  A
C1563      C1564   1.403   1_545  A
C1564      N1571   1.429       .  S
C1565      H1570   1.083       .  S
C1566      C1567   1.420       .  A
C1567      N1568   1.428       .  S
N1568      O1572   1.262       .  A
N1571      O1574   1.262       .  A
C1576      H1583   1.081       .  S
C1576      C1581   1.399       .  A
C1577      C1578   1.418   1_455  A
C1578      C1579   1.405       .  A
C1578      N1585   1.428       .  S
C1579      H1584   1.084       .  S
C1579      C1580   1.402   1_655  A
C1581      N1582   1.429       .  S
N1582      O1586   1.262       .  A
N1582      O1587   1.262       .  A
N1585      O1589   1.262       .  A
N1585      O1588   1.262       .  A
C1590      H1597   1.084       .  S
C1590      C1595   1.401       .  A
C1591      C1592   1.406   1_455  A
C1592      C1593   1.396       .  A
C1592      N1599   1.428       .  S
C1593      H1598   1.084       .  S
C1593      C1594   1.405   1_655  A
C1595      N1596   1.428       .  S
N1596      O1600   1.262       .  A
N1596      O1601   1.262       .  A
N1599      O1603   1.262       .  A
N1599      O1602   1.262       .  A
C1604      H1611   1.084       .  S
C1604      C1609   1.395       .  A
C1605      C1606   1.414       .  A
C1606      C1607   1.399       .  A
C1606      N1613   1.427       .  S
C1607      H1612   1.084       .  S
C1607      C1608   1.399   1_655  A
C1609      N1610   1.427       .  S
N1610      O1614   1.262       .  A
N1610      O1615   1.262       .  A
N1613      O1617   1.261       .  A
N1613      O1616   1.262       .  A
C1618      H1625   1.083       .  S
C1618      C1619   1.409       .  A
C1618      C1623   1.405       .  A
C1620      C1621   1.399       .  A
C1620      N1627   1.425       .  S
C1621      H1626   1.084       .  S
C1622      C1623   1.406   1_455  A
C1623      N1624   1.429       .  S
N1624      O1628   1.262       .  A
N1624      O1629   1.262       .  A
N1627      O1631   1.262       .  A
N1627      O1630   1.261       .  A
C1632      C1669   1.465       .  S
C1632      C1852   1.488       .  S
N1633      N1650   1.326       .  A
C1634      C1672   1.462       .  S
C1634      N1659   1.339       .  A
C1634      H1679   1.081       .  S
H1635      C1676   1.079       .  S
C1636      N1660   1.341       .  A
C1636      H1665   1.079       .  S
Co1637     N1677   2.083       .  S
Co1637     N1653   2.080       .  S
N1638      C1676   1.337       .  A
N1638     Co1639   2.077       .  S
Co1639     N1642   2.082       .  S
C1640      C1827   1.485       .  S
C1640      N1678   1.351   1_455  A
N1641      N1671   1.325       .  A
N1641     Co1674   2.088   1_556  S
N1642      N1678   1.320       .  A
N1643      N1653   1.323       .  A
H1644      C1669   1.081       .  S
N1645      N1666   1.324       .  A
N1646      N1651   1.326       .  A
C1647      C1675   1.465       .  S
N1648      C1663   1.342       .  A
C1649      N1677   1.343       .  A
C1649      H1683   1.080       .  S
C1652      N1673   1.351       .  A
N1654      C1680   1.344       .  A
N1654     Co1670   2.098       .  S
N1655      C1669   1.343       .  A
N1656      N1684   1.320       .  A
H1657      C1680   1.081       .  S
H1658      C1675   1.079       .  S
N1660     Co1674   2.078   1_556  S
N1661      N1673   1.320       .  A
N1661     Co1670   2.084       .  S
C1662      C1799   1.476   1_545  S
C1662      N1666   1.351   1_545  A
C1663      C1682   1.466       .  S
C1663      H1667   1.080       .  S
N1664      C1675   1.339       .  A
C1668      N1684   1.343       .  A
C1682      C1768   1.490       .  S
N1685      C1690   1.351   1_455  A
N1685      C1689   1.352   1_455  A
N1685      H1717   1.037       .  S
N1686      C1693   1.353       .  A
N1686      C1694   1.353       .  A
N1687      C1692   1.352       .  A
N1687      C1691   1.351       .  A
N1687      H1718   1.038       .  S
N1688      C1695   1.351       .  A
N1688      C1696   1.351       .  A
C1689      C1697   1.387       .  A
C1689      C1705   1.415   1_655  A
C1690      C1706   1.414   1_655  A
C1690      C1698   1.387       .  A
C1691      C1699   1.388   1_455  A
C1691      C1708   1.416       .  A
C1692      C1707   1.413       .  A
C1692      C1700   1.386   1_455  A
C1693      C1705   1.418       .  A
C1693      C1701   1.386       .  A
C1694      C1708   1.418       .  A
C1694      C1702   1.387       .  A
C1695      C1703   1.386       .  A
C1695      C1706   1.412       .  A
C1696      C1704   1.386       .  A
C1696      C1707   1.412       .  A
C1697      H1709   1.082       .  S
C1697      C1698   1.373       .  A
C1698      H1710   1.082       .  S
C1699      H1711   1.082       .  S
C1699      C1700   1.373       .  A
C1700      H1712   1.082       .  S
C1701      H1713   1.082       .  S
C1701      C1702   1.374       .  A
C1702      H1714   1.082       .  S
C1703      H1715   1.082       .  S
C1703      C1704   1.372       .  A
C1704      H1716   1.082       .  S
C1705      C1841   1.487   1_455  S
C1706      C1855   1.481   1_455  S
C1707      C1824   1.482       .  S
C1708      C1813   1.487       .  S
N1719      C1724   1.351   1_545  A
N1719      C1723   1.349   1_545  A
N1719      H1751   1.037       .  S
N1720      C1727   1.348   1_565  A
N1720      C1728   1.350   1_565  A
N1721      C1726   1.348   1_545  A
N1721      C1725   1.350   1_545  A
N1721      H1752   1.038       .  S
N1722      C1729   1.348       .  A
N1722      C1730   1.347       .  A
C1723      C1731   1.388       .  A
C1723      C1739   1.410       .  A
C1724      C1740   1.409   1_565  A
C1724      C1732   1.386       .  A
C1725      C1733   1.387       .  A
C1725      C1742   1.408       .  A
C1726      C1741   1.408       .  A
C1726      C1734   1.387       .  A
C1727      C1739   1.409   1_545  A
C1727      C1735   1.386       .  A
C1728      C1742   1.409   1_545  A
C1728      C1736   1.386       .  A
C1729      C1737   1.385       .  A
C1729      C1740   1.406       .  A
C1730      C1738   1.387       .  A
C1730      C1741   1.407   1_545  A
C1731      H1743   1.082       .  S
C1731      C1732   1.374       .  A
C1732      H1744   1.082       .  S
C1733      H1745   1.082       .  S
C1733      C1734   1.375       .  A
C1734      H1746   1.083       .  S
C1735      H1747   1.082       .  S
C1735      C1736   1.373       .  A
C1736      H1748   1.082       .  S
C1737      H1749   1.082       .  S
C1737      C1738   1.372       .  A
C1738      H1750   1.082       .  S
C1739      C1757   1.473       .  S
C1740      C1771   1.477       .  S
C1741      C1796   1.471       .  S
C1742      C1785   1.477   1_565  S
C1753      H1760   1.083       .  S
C1753      C1754   1.408       .  A
C1753      C1758   1.400       .  A
C1755      C1756   1.395       .  A
C1755      N1762   1.429       .  S
C1756      H1761   1.084       .  S
C1757      C1758   1.404       .  A
C1758      N1759   1.429       .  S
N1759      O1763   1.262       .  A
N1759      O1764   1.262       .  A
N1762      O1765   1.262       .  A
C1767      H1774   1.083       .  S
C1767      C1768   1.412   1_545  A
C1767      C1772   1.403       .  A
C1768      C1769   1.419       .  A
C1769      C1770   1.396       .  A
C1769      N1776   1.426       .  S
C1770      H1775   1.084       .  S
C1770      C1771   1.393   1_565  A
C1771      C1772   1.402       .  A
C1772      N1773   1.429       .  S
N1773      O1777   1.262       .  A
N1776      O1779   1.261       .  A
C1781      H1788   1.081       .  S
C1781      C1782   1.404       .  A
C1781      C1786   1.395       .  A
C1783      C1784   1.400       .  A
C1783      N1790   1.428       .  S
C1784      H1789   1.084       .  S
C1785      C1786   1.404       .  A
C1786      N1787   1.428       .  S
N1787      O1791   1.262       .  A
N1790      O1794   1.262       .  A
C1795      H1802   1.084       .  S
C1795      C1796   1.395   1_545  A
C1795      C1800   1.394       .  A
C1796      C1797   1.404       .  A
C1797      N1804   1.430       .  S
C1798      H1803   1.083       .  S
C1799      C1800   1.414   1_565  A
C1800      N1801   1.428       .  S
N1801      O1805   1.262       .  A
N1804      O1807   1.262       .  A
C1809      H1816   1.080       .  S
C1809      C1814   1.398       .  A
C1810      C1811   1.415   1_455  A
C1811      C1812   1.400       .  A
C1811      N1818   1.428       .  S
C1812      H1817   1.084       .  S
C1812      C1813   1.400   1_655  A
C1814      N1815   1.428       .  S
N1815      O1819   1.262       .  A
N1815      O1820   1.262       .  A
N1818      O1822   1.262       .  A
N1818      O1821   1.262       .  A
C1823      H1830   1.084       .  S
C1823      C1828   1.400       .  A
C1824      C1825   1.405   1_455  A
C1825      C1826   1.395       .  A
C1825      N1832   1.428       .  S
C1826      H1831   1.084       .  S
C1826      C1827   1.407   1_655  A
C1828      N1829   1.428       .  S
N1829      O1833   1.262       .  A
N1829      O1834   1.262       .  A
N1832      O1836   1.262       .  A
N1832      O1835   1.262       .  A
C1837      H1844   1.084       .  S
C1837      C1842   1.395       .  A
C1838      C1839   1.417       .  A
C1839      C1840   1.401       .  A
C1839      N1846   1.428       .  S
C1840      H1845   1.084       .  S
C1840      C1841   1.400       .  A
C1842      N1843   1.428       .  S
N1843      O1847   1.262       .  A
N1843      O1848   1.262       .  A
N1846      O1850   1.261       .  A
N1846      O1849   1.262       .  A
C1851      H1858   1.082       .  S
C1851      C1852   1.409       .  A
C1851      C1856   1.403       .  A
C1853      C1854   1.399       .  A
C1853      N1860   1.424       .  S
C1854      H1859   1.084       .  S
C1855      C1856   1.405       .  A
C1856      N1857   1.429       .  S
N1857      O1861   1.262       .  A
N1857      O1862   1.262       .  A
N1860      O1864   1.262       .  A
N1860      O1863   1.261       .  A
