geometry optimzed in LAMMPS
_audit_creation_date              2020-12-01 
_audit_creation_method            'lammps2cif' 
_symmetry_space_group_name_H-M    'P1' 
_symmetry_Int_Tables_number       1 
_symmetry_cell_setting            triclinic 
loop_ 
_symmetry_equiv_pos_as_xyz 
  x,y,z 
_cell_length_a                    35.23981258 
_cell_length_b                    35.41355302738394 
_cell_length_c                    26.32821429610164 
_cell_angle_alpha                 89.23715210046505 
_cell_angle_beta                  89.8501036426956 
_cell_angle_gamma                 89.89045388680844 
loop_ 
_atom_site_label 
_atom_site_type_symbol 
_atom_site_fract_x 
_atom_site_fract_y 
_atom_site_fract_z 
_atom_site_charge 
O1          O  0.35542801  0.18488775  0.43706788    -0.86200
O2          O  0.32641125  0.25460409  0.41478892    -0.83200
C3          C  0.31247745  0.28189932  0.39004527     0.97300
O4          O  0.29129510  0.27509417  0.35246789    -0.83300
O5          O  0.34085502  0.24656722  0.28176754    -0.85900
C6          C  0.36300842  0.22436775  0.25930451     1.01800
O7          O  0.36003849  0.18918656  0.26692246    -0.78700
O8          O  0.38488120  0.18402906  0.36387745    -0.78900
C9          C  0.38549294  0.18811939  0.41108700     1.01800
O10         O  0.28062614  0.15277125  0.42104008    -0.86200
O11         O  0.25161210  0.22410245  0.40952691    -0.83200
C12         C  0.22765247  0.22183558  0.37413874     0.97300
O13         O  0.23797935  0.21664443  0.32883426    -0.83300
O14         O  0.28501200  0.19099415  0.25145563    -0.85900
C15         C  0.28619263  0.15508428  0.25297216     1.01800
O16         O  0.29998155  0.13798423  0.29095038    -0.78700
O17         O  0.32984776  0.12583757  0.38707255    -0.78900
C18         C  0.29933790  0.12322101  0.41233421     1.01700
Cr19       Cr  0.30396407  0.20354464  0.41602301     1.93700
Cr20       Cr  0.29026609  0.22992276  0.30658772     1.93200
Cr21       Cr  0.34142537  0.16175145  0.32905434     1.39100
O22         O  0.31136599  0.19824699  0.35042000    -1.23900
C23         C  0.25403342  0.02931276  0.00649158     0.79400
N24         N  0.26032364  0.03923043  0.05570335    -0.78900
C25         C  0.24868862  0.07362442  0.07231257     0.81800
N26         N  0.23137343  0.09790398  0.03965877    -0.78900
C27         C  0.22463778  0.08841244  0.99096449     0.81900
N28         N  0.23652057  0.05431965  0.97460858    -0.80600
C29         C  0.47919416  0.22782335  0.00573576     0.79400
N30         N  0.45133735  0.23831785  0.97275100    -0.78900
C31         C  0.41883871  0.25385577  0.99036819     0.81800
N32         N  0.41375106  0.25760228  0.04084004    -0.77300
C33         C  0.44116607  0.24778306  0.07456718     0.81900
N34         N  0.47410377  0.23262287  0.05668899    -0.80600
O35         O  0.31743366  0.86531123  0.93532906    -0.86200
O36         O  0.24855276  0.83257909  0.91633729    -0.83200
C37         C  0.22177388  0.81799464  0.89177389     0.97300
O38         O  0.22962350  0.79792286  0.85377209    -0.83300
O39         O  0.25588280  0.84779812  0.78162853    -0.85900
C40         C  0.27687698  0.86987999  0.75657394     1.01800
O41         O  0.31227422  0.86935678  0.76439620    -0.78700
O42         O  0.31684456  0.89486438  0.86187398    -0.78900
C43         C  0.31204400  0.89508576  0.90924175     1.01800
O44         O  0.35382906  0.79263338  0.91960839    -0.86200
O45         O  0.28343376  0.75974778  0.91076673    -0.83200
C46         C  0.28553208  0.73611252  0.87531828     0.97300
O47         O  0.29042814  0.74684972  0.82989435    -0.83300
O48         O  0.31361925  0.79421694  0.75126801    -0.85900
C49         C  0.34956886  0.79656747  0.75091155     1.01800
O50         O  0.36687418  0.81222345  0.78699255    -0.78700
O51         O  0.37821790  0.84239372  0.88349450    -0.78900
C52         C  0.38253601  0.81275310  0.91036190     1.01700
Cr53       Cr  0.30138570  0.81307805  0.91566260     1.93700
Cr54       Cr  0.27488345  0.79839986  0.80719190     1.93200
Cr55       Cr  0.34112583  0.85235736  0.82633244     1.39100
O56         O  0.30601112  0.82076410  0.84961167    -1.23900
C57         C  0.46963851  0.74455513  0.50502491     0.79400
N58         N  0.45793908  0.75238161  0.55315369    -0.78900
C59         C  0.42281667  0.74158845  0.56921691     0.81800
N60         N  0.39946807  0.72343408  0.53679721    -0.78900
C61         C  0.41084338  0.71543807  0.48892422     0.81900
N62         N  0.44579697  0.72630861  0.47327225    -0.80600
C63         C  0.24989521  0.97631377  0.49132654     0.79400
N64         N  0.25123411  0.96982849  0.54242994    -0.78900
C65         C  0.24317376  0.93522045  0.56239157     0.81800
N66         N  0.23469657  0.90681895  0.53047722    -0.78900
C67         C  0.23238189  0.91272800  0.47978975     0.81900
N68         N  0.24018013  0.94749888  0.45998971    -0.80600
O69         O  0.63866905  0.78284299  0.43161757    -0.86200
O70         O  0.70489216  0.74641484  0.42001671    -0.83200
C71         C  0.69952077  0.72269432  0.38542322     0.97300
O72         O  0.69641015  0.73367175  0.33958581    -0.83300
O73         O  0.68031633  0.78368029  0.25876601    -0.85900
C74         C  0.64516527  0.79000439  0.25463327     1.01800
O75         O  0.62714912  0.80383937  0.29158215    -0.78700
O76         O  0.61246054  0.82964121  0.38912483    -0.78900
C77         C  0.60971556  0.80100370  0.41819234     1.01800
O78         O  0.67763545  0.85284811  0.44764567    -0.86200
O79         O  0.74534708  0.81608583  0.42611408    -0.83200
C80         C  0.76988485  0.79636890  0.40378307     0.97300
O81         O  0.76105839  0.77830065  0.36449021    -0.83300
O82         O  0.73939342  0.83271597  0.29077464    -0.85900
C83         C  0.71934768  0.85842268  0.27004463     1.01800
O84         O  0.68419926  0.85926253  0.27873339    -0.78700
O85         O  0.67509620  0.88286352  0.37498794    -0.78900
C86         C  0.68020989  0.88315722  0.42222075     1.01700
Cr87       Cr  0.69120239  0.80048464  0.42589004     1.93700
Cr88       Cr  0.71679423  0.78405561  0.31686677     1.93200
Cr89       Cr  0.65233177  0.84119067  0.33612071     1.39100
O90         O  0.68652549  0.80841225  0.35952186    -1.23900
C91         C  0.76452625  0.96827110  0.01193897     0.79400
N92         N  0.77685694  0.93992846  0.98143817    -0.78900
C93         C  0.78538197  0.90528009  0.00145679     0.81800
N94         N  0.78059614  0.89920460  0.05226061    -0.78900
C95         C  0.76850589  0.92729112  0.08306467     0.81900
N96         N  0.76043865  0.96177585  0.06260868    -0.80600
C97         C  0.53216411  0.76990716  0.98978332     0.79400
N98         N  0.55708962  0.75152334  0.95866450    -0.78900
C99         C  0.59200312  0.74116499  0.97624655     0.81800
N100        N  0.60160383  0.74969670  0.02447954    -0.78900
C101        C  0.57755994  0.76814623  0.05574212     0.81900
N102        N  0.54258950  0.77827982  0.03832478    -0.80600
O103        O  0.70131548  0.13644175  0.94570704    -0.86200
O104        O  0.75910737  0.18305146  0.90975477    -0.83200
C105        C  0.77727711  0.20600453  0.88183197     0.97300
O106        O  0.76091576  0.22274194  0.84498489    -0.83300
O107        O  0.73677961  0.17097413  0.77214797    -0.85900
C108        C  0.71798867  0.14364871  0.75476025     1.01800
O109        O  0.68774563  0.13259599  0.77592372    -0.78700
O110        O  0.69864959  0.10679905  0.87378946    -0.78900
C111        C  0.70658985  0.10683632  0.92041512     1.01800
O112        O  0.65060386  0.20011382  0.93691403    -0.86200
O113        O  0.70956132  0.24643983  0.91482480    -0.83200
C114        C  0.69425103  0.26881262  0.88328439     0.97300
O115        O  0.68652456  0.25769119  0.83932130    -0.83300
O116        O  0.66655061  0.20926356  0.76401113    -0.85900
C117        C  0.63334207  0.19671144  0.76982939     1.01800
O118        O  0.62479878  0.17609092  0.80753631    -0.78700
O119        O  0.63013160  0.14738371  0.90467873    -0.78900
C120        C  0.62404398  0.17736331  0.92906713     1.01700
Cr121      Cr  0.70423972  0.19049773  0.92178455     1.93700
Cr122      Cr  0.71141474  0.21270872  0.80920717     1.93200
Cr123      Cr  0.66296089  0.14359044  0.84213606     1.39100
O124        O  0.69308544  0.18207913  0.85725138    -1.23900
C125        C  0.52887513  0.22108733  0.50465724     0.79400
N126        N  0.53444677  0.21482963  0.55519812    -0.78900
C127        C  0.56854127  0.22277681  0.57639687     0.81800
N128        N  0.59693840  0.23709110  0.54724512    -0.78900
C129        C  0.59159796  0.24338089  0.49696317     0.81900
N130        N  0.55769997  0.23503566  0.47562640    -0.80600
C131        C  0.73280588  0.02565997  0.49952672     0.79400
N132        N  0.72572144  0.03820898  0.54738971    -0.78900
C133        C  0.73877508  0.07256961  0.56149389     0.81800
N134        N  0.75849917  0.09382936  0.52777566    -0.78900
C135        C  0.76629081  0.08168884  0.48040366     0.81900
N136        N  0.75311554  0.04741432  0.46603396    -0.80600
O137        O  0.81331817  0.35048996  0.44270441    -0.86200
O138        O  0.75178748  0.30684890  0.41923514    -0.83200
C139        C  0.72977461  0.28652116  0.39378299     0.97300
O140        O  0.74192576  0.27058455  0.35412252    -0.83300
O141        O  0.76490439  0.32191736  0.27919839    -0.85900
C142        C  0.78503444  0.34643610  0.25660713     1.01800
O143        O  0.81817669  0.35323831  0.27159689    -0.78700
O144        O  0.81329030  0.37997088  0.36910346    -0.78900
C145        C  0.80734991  0.37999975  0.41634281     1.01800
O146        O  0.86078611  0.28435310  0.43108813    -0.86200
O147        O  0.79720027  0.24134027  0.41794276    -0.83200
C148        C  0.80611433  0.21784602  0.38438895     0.97300
O149        O  0.81136682  0.22886820  0.33914658    -0.83300
O150        O  0.83115483  0.27779030  0.26075588    -0.85900
C151        C  0.86584367  0.28663292  0.26361439     1.01800
O152        O  0.87821803  0.30486282  0.30089063    -0.78700
O153        O  0.87977041  0.33686772  0.39530135    -0.78900
C154        C  0.88687616  0.30748368  0.42107163     1.01700
Cr155      Cr  0.80657324  0.29657736  0.42260552     1.93700
Cr156      Cr  0.78910807  0.27694265  0.31190142     1.93200
Cr157      Cr  0.84476825  0.34102063  0.33619559     1.39100
O158        O  0.81323712  0.30483768  0.35669671    -1.23900
C159        C  0.97406720  0.27287290  0.99993413     0.79400
N160        N  0.94835927  0.25803540  0.96721212    -0.78900
C161        C  0.91347489  0.24728587  0.98406905     0.81800
N162        N  0.90437742  0.25101975  0.03377942    -0.78900
C163        C  0.92996179  0.26510318  0.06681836     0.81900
N164        N  0.96436484  0.27653565  0.04956140    -0.80600
C165        C  0.76139487  0.45812725  0.99316930     0.79400
N166        N  0.73916730  0.43717725  0.96217044    -0.78900
C167        C  0.72411563  0.40403537  0.97895025     0.81800
N168        N  0.73192031  0.39227001  0.02683599    -0.78900
C169        C  0.75447154  0.41198052  0.05811953     0.81900
N170        N  0.76934445  0.44526259  0.04098080    -0.80600
O171        O  0.14748798  0.29466776  0.93579087    -0.86200
O172        O  0.20701169  0.24734055  0.92110283    -0.83200
C173        C  0.19519826  0.22451758  0.88810794     0.97300
O174        O  0.19019681  0.23539980  0.84301373    -0.83300
O175        O  0.17382904  0.28322830  0.76413487    -0.85900
C176        C  0.13989663  0.29445352  0.76741275     1.01800
O177        O  0.12913922  0.31401737  0.80431013    -0.78700
O178        O  0.12987003  0.34717247  0.89859345    -0.78900
C179        C  0.12220629  0.31884424  0.92640227     1.01800
O180        O  0.19793416  0.35856073  0.94378127    -0.86200
O181        O  0.25752597  0.31087770  0.91814395    -0.83200
C182        C  0.27755010  0.28830440  0.89277105     0.97300
O183        O  0.26341950  0.27078834  0.85558797    -0.83300
O184        O  0.24314668  0.32238661  0.77870810    -0.85900
C185        C  0.22449443  0.34842150  0.75691907     1.01800
O186        O  0.19217342  0.35798733  0.77290054    -0.78700
O187        O  0.19856199  0.38590681  0.86884278    -0.78900
C188        C  0.20219498  0.38784137  0.91621777     1.01700
Cr189      Cr  0.20199902  0.30362415  0.92469243     1.93700
Cr190      Cr  0.21614852  0.28035942  0.81415876     1.93200
Cr191      Cr  0.16489686  0.34839932  0.83809499     1.39100
O192        O  0.19461632  0.31088076  0.85876380    -1.23900
C193        C  0.24558249  0.46924494  0.50283637     0.79400
N194        N  0.23932185  0.45527495  0.55071641    -0.78900
C195        C  0.25709385  0.42311129  0.56642300     0.81800
N196        N  0.28065211  0.40524238  0.53431374    -0.78900
C197        C  0.28751284  0.41839872  0.48672990     0.81900
N198        N  0.26939929  0.45042675  0.47072733    -0.80600
C199        C  0.03430015  0.27478186  0.50346740     0.79400
N200        N  0.06150319  0.26307156  0.47095965    -0.78900
C201        C  0.09680502  0.25531492  0.48793626     0.81800
N202        N  0.10512938  0.25942631  0.53793927    -0.78900
C203        C  0.07791814  0.27139388  0.57080635     0.81900
N204        N  0.04248401  0.27934054  0.55341067    -0.80600
O205        O  0.20952659  0.63681718  0.43311405    -0.86200
O206        O  0.25434801  0.69773800  0.41711892    -0.83200
C207        C  0.27717272  0.68697047  0.38314782     0.97300
O208        O  0.26600128  0.68249676  0.33829997    -0.83300
O209        O  0.21685114  0.66706526  0.26110465    -0.85900
C210        C  0.20628726  0.63301835  0.26236585     1.01800
O211        O  0.18693984  0.62024173  0.29923071    -0.78700
O212        O  0.15739881  0.61710660  0.39759116    -0.78900
C213        C  0.18618951  0.61077432  0.42524286     1.01800
O214        O  0.14414222  0.68465132  0.44594934    -0.86200
O215        O  0.18868861  0.74564249  0.41802819    -0.83200
C216        C  0.20999982  0.76695755  0.39203762     0.97300
O217        O  0.22843077  0.75403934  0.35464280    -0.83300
O218        O  0.17560479  0.73441078  0.28073745    -0.85900
C219        C  0.14888522  0.71627867  0.26050999     1.01800
O220        O  0.14049893  0.68333083  0.27546305    -0.78700
O221        O  0.11516516  0.68644457  0.37315341    -0.78900
C222        C  0.11473727  0.69184826  0.42027937     1.01700
Cr223      Cr  0.19837692  0.69066940  0.42341502     1.93700
Cr224      Cr  0.21942297  0.70769644  0.31247938     1.93200
Cr225      Cr  0.15284105  0.65409621  0.33844713     1.39100
O226        O  0.19030608  0.68405680  0.35778897    -1.23900
C227        C  0.02691496  0.75139888  0.01023595     0.79400
N228        N  0.03820121  0.74447506  0.05900580    -0.78900
C229        C  0.07206101  0.75765424  0.07569460     0.81800
N230        N  0.09416275  0.77813750  0.04371980    -0.78900
C231        C  0.08365250  0.78583671  0.99543379     0.81900
N232        N  0.05013799  0.77180706  0.97868992    -0.80600
C233        C  0.23217536  0.53640868  0.99433429     0.79400
N234        N  0.24593470  0.56318972  0.96177232    -0.78900
C235        C  0.25444437  0.59813415  0.97892762     0.81800
N236        N  0.24842233  0.60645328  0.02857791    -0.78900
C237        C  0.23453611  0.57982125  0.06122587     0.81900
N238        N  0.22627806  0.54489057  0.04390425    -0.80600
O239        O  0.86635793  0.67130475  0.94609794    -0.86200
O240        O  0.82766454  0.73683229  0.92595520    -0.83200
C241        C  0.80949783  0.76210906  0.90235260     0.97300
O242        O  0.78859946  0.75257766  0.86558976    -0.83300
O243        O  0.83888055  0.73214047  0.79072786    -0.85900
C244        C  0.86457306  0.71410024  0.76816958     1.01800
O245        O  0.86754571  0.67895871  0.77593359    -0.78700
O246        O  0.89450974  0.67461506  0.87241039    -0.78900
C247        C  0.89510869  0.67977688  0.91953208     1.01800
O248        O  0.79653381  0.63006314  0.93231618    -0.86200
O249        O  0.75710408  0.69696449  0.92371454    -0.83200
C250        C  0.73247318  0.69284680  0.88931586     0.97300
O251        O  0.74282879  0.68754734  0.84391904    -0.83300
O252        O  0.79060242  0.66968650  0.76218662    -0.85900
C253        C  0.79797384  0.63454680  0.76114502     1.01800
O254        O  0.81611306  0.61879989  0.79687058    -0.78700
O255        O  0.84653366  0.60815528  0.89250261    -0.78900
C256        C  0.81696200  0.60259647  0.91913348     1.01700
Cr257      Cr  0.81240428  0.68321874  0.92704380     1.93700
Cr258      Cr  0.79221613  0.70803904  0.81864005     1.93200
Cr259      Cr  0.85360788  0.64742616  0.83682110     1.39100
O260        O  0.81890770  0.67913469  0.86062757    -1.23900
C261        C  0.76284008  0.52391812  0.50203359     0.79400
N262        N  0.76927893  0.53329467  0.55132461    -0.78900
C263        C  0.76151321  0.56864991  0.56795082     0.81800
N264        N  0.74657180  0.59457248  0.53528522    -0.78900
C265        C  0.73932740  0.58556121  0.48621798     0.81900
N266        N  0.74807839  0.55045348  0.46981261    -0.80600
C267        C  0.97658702  0.75102638  0.51172223     0.79400
N268        N  0.97114255  0.74956312  0.56310935    -0.78900
C269        C  0.93718570  0.75972510  0.58368799     0.81800
N270        N  0.90880751  0.77048201  0.55211057    -0.78900
C271        C  0.91391704  0.77280072  0.50133084     0.81900
N272        N  0.94774843  0.76276537  0.48098860    -0.80600
C273        C  0.94200172  0.72446165  0.66852122    -0.02700
C274        C  0.92795579  0.75503131  0.63889056     0.07000
C275        C  0.89962151  0.77843569  0.66021337    -0.02800
C276        C  0.87930954  0.76650300  0.70370220    -0.02800
C277        C  0.89002785  0.73284832  0.72970359     0.07100
C278        C  0.92445144  0.71509426  0.71525761    -0.03000
Br279      Br  0.94921638  0.67936814  0.76054331    -0.01500
Br280      Br  0.98322701  0.69307373  0.64515201    -0.01600
Br281      Br  0.83602743  0.79625078  0.72432097    -0.01600
Br282      Br  0.88864793  0.82744568  0.63004672    -0.01600
C283        C  0.81805447  0.60431680  0.67990688    -0.02700
C284        C  0.78886171  0.61282160  0.71487588     0.07000
C285        C  0.75119209  0.60271038  0.70345016    -0.02800
C286        C  0.74271383  0.58532104  0.65687288    -0.02800
C287        C  0.77139350  0.58007845  0.62021094     0.07100
C288        C  0.80920233  0.58914873  0.63217610    -0.03000
Br289      Br  0.84867710  0.58324049  0.58194564    -0.01500
Br290      Br  0.87031070  0.61456438  0.69622072    -0.01600
Br291      Br  0.69207510  0.56770794  0.64353953    -0.01600
Br292      Br  0.71124232  0.61277955  0.75141251    -0.01600
C293        C  0.94069823  0.73360179  0.92617826    -0.02700
C294        C  0.92877028  0.69754504  0.94314189     0.07000
C295        C  0.94803796  0.67974532  0.98364903    -0.02800
C296        C  0.98007654  0.69688317  0.00564736    -0.02800
C297        C  0.99174344  0.73357930  0.98948800     0.07100
C298        C  0.97069001  0.75223440  0.95071851    -0.03000
Br299      Br  0.98008836  0.80466345  0.93326732    -0.01500
Br300      Br  0.91480594  0.75869537  0.87042883    -0.01600
Br301      Br  0.00845063  0.66785038  0.05551732    -0.01600
Br302      Br  0.93172339  0.63070450  0.00742904    -0.01600
C303        C  0.12617808  0.72956449  0.12247912    -0.02700
C304        C  0.08912065  0.74470105  0.12410381     0.07000
C305        C  0.07145696  0.75070065  0.17150545    -0.02800
C306        C  0.09169137  0.74326729  0.21684882    -0.02800
C307        C  0.12968965  0.73080217  0.21468378     0.07100
C308        C  0.14697372  0.72461102  0.16726418    -0.03000
Br309      Br  0.19937969  0.70924995  0.16275393    -0.01500
Br310      Br  0.14749604  0.71189007  0.05912297    -0.01600
Br311      Br  0.06808175  0.75095762  0.28208188    -0.01600
Br312      Br  0.01977770  0.76838413  0.17451914    -0.01600
C313        C  0.18320654  0.60066177  0.18475094    -0.02700
C314        C  0.21379519  0.61038415  0.21655246     0.07000
C315        C  0.25128032  0.60731530  0.19806075    -0.02800
C316        C  0.25807962  0.59628421  0.14762568    -0.02800
C317        C  0.22742295  0.58908446  0.11498917     0.07100
C318        C  0.18995957  0.59116053  0.13367453    -0.03000
Br319      Br  0.14778757  0.58532013  0.08775720    -0.01500
Br320      Br  0.13174579  0.60303005  0.20978922    -0.01600
Br321      Br  0.30939762  0.59176975  0.12268003    -0.01600
Br322      Br  0.29333035  0.61887704  0.24189401    -0.01600
C323        C  0.04780029  0.74812277  0.50578909    -0.02700
C324        C  0.01201094  0.73585360  0.48889002     0.07000
C325        C  0.01006239  0.70841103  0.45045215    -0.02800
C326        C  0.04347416  0.69399114  0.42843426    -0.02800
C327        C  0.07951909  0.70613348  0.44531342     0.07100
C328        C  0.08137930  0.73291403  0.48492128    -0.03000
Br329      Br  0.12949884  0.75048205  0.51044876    -0.01500
Br330      Br  0.05094146  0.78782498  0.55533387    -0.01600
Br331      Br  0.03900975  0.65580866  0.37681478    -0.01600
Br332      Br  0.96162138  0.68850955  0.42917852    -0.01600
C333        C  0.20338202  0.50475142  0.44131955    -0.02700
C334        C  0.22599904  0.50438973  0.48555735     0.07000
C335        C  0.22961340  0.53788406  0.51348112    -0.02800
C336        C  0.21156394  0.57126151  0.49697477    -0.02800
C337        C  0.19376530  0.57302755  0.44894223     0.07100
C338        C  0.18855020  0.53913764  0.42190336    -0.03000
Br339      Br  0.16293616  0.53927186  0.35720472    -0.01500
Br340      Br  0.19127813  0.45793495  0.40842947    -0.01600
Br341      Br  0.21037680  0.61430282  0.54156610    -0.01600
Br342      Br  0.26251754  0.53985807  0.57157936    -0.01600
C343        C  0.10473131  0.31978618  0.69289672    -0.02700
C344        C  0.11485102  0.28847057  0.72366428     0.07000
C345        C  0.10839216  0.25161327  0.70632688    -0.02800
C346        C  0.09413415  0.24602492  0.65710601    -0.02800
C347        C  0.08744815  0.27726426  0.62464593     0.07100
C348        C  0.09195723  0.31416411  0.64304622    -0.03000
Br349      Br  0.08459572  0.35715565  0.59858518    -0.01500
Br350      Br  0.11150232  0.37063373  0.71704784    -0.01600
Br351      Br  0.08428250  0.19566086  0.63374384    -0.01600
Br352      Br  0.11986197  0.20898050  0.75002529    -0.01600
C353        C  0.25067193  0.40355158  0.70855161    -0.02700
C354        C  0.23771911  0.36599334  0.70914101     0.07000
C355        C  0.23069669  0.34758797  0.66294473    -0.02800
C356        C  0.23521708  0.36710041  0.61653407    -0.02800
C357        C  0.24872252  0.40464099  0.61582108     0.07100
C358        C  0.25769342  0.42227090  0.66195699    -0.03000
Br359      Br  0.28246642  0.47052998  0.66174369    -0.01500
Br360      Br  0.25830453  0.42939422  0.77174165    -0.01600
Br361      Br  0.22140227  0.34244182  0.55400228    -0.01600
Br362      Br  0.21364125  0.29587699  0.66267470    -0.01600
C363        C  0.18677745  0.45647752  0.92229435    -0.02700
C364        C  0.20870754  0.42526120  0.93909588     0.07000
C365        C  0.23690036  0.43053184  0.97640118    -0.02800
C366        C  0.24383075  0.46689498  0.99534472    -0.02800
C367        C  0.22354427  0.49823391  0.97601881     0.07100
C368        C  0.19491915  0.49295076  0.93958689    -0.03000
Br369      Br  0.16593646  0.53546608  0.91421597    -0.01500
Br370      Br  0.14349236  0.44916493  0.87841058    -0.01600
Br371      Br  0.28237314  0.47419681  0.04634565    -0.01600
Br372      Br  0.26745675  0.38871041  0.00021057    -0.01600
C373        C  0.82969595  0.53811945  0.95888246    -0.02700
C374        C  0.80489944  0.56392026  0.93450106     0.07000
C375        C  0.76669201  0.55367944  0.92719306    -0.02800
C376        C  0.75216441  0.52047677  0.94934814    -0.02800
C377        C  0.77663475  0.49480118  0.97441692     0.07100
C378        C  0.81563544  0.50357806  0.97871326    -0.03000
Br379      Br  0.85024360  0.46830108  0.01089087    -0.01500
Br380      Br  0.88292135  0.54930506  0.96454589    -0.01600
Br381      Br  0.69791543  0.51245017  0.94897377    -0.01600
Br382      Br  0.73499799  0.58297229  0.88176349    -0.01600
C383        C  0.07934081  0.29785038  0.99701618    -0.02700
C384        C  0.08354391  0.31305631  0.94758557     0.07000
C385        C  0.05102934  0.31828421  0.91695102    -0.02800
C386        C  0.01525554  0.30575180  0.93419102    -0.02800
C387        C  0.01170365  0.28683202  0.98178038     0.07100
C388        C  0.04421804  0.28313951  0.01317431    -0.03000
Br389      Br  0.04269248  0.25523762  0.07687167    -0.01500
Br390      Br  0.12127991  0.29957497  0.04427544    -0.01600
Br391      Br  0.97147147  0.31611329  0.89199867    -0.01600
Br392      Br  0.05462319  0.34213237  0.85067912    -0.01600
C393        C  0.92110453  0.30530264  0.14336917    -0.02700
C394        C  0.91955885  0.26946585  0.12069165     0.07000
C395        C  0.90577036  0.23815544  0.14871399    -0.02800
C396        C  0.89077259  0.24318664  0.19767953    -0.02800
C397        C  0.89024297  0.27938122  0.21926570     0.07100
C398        C  0.90682442  0.31017760  0.19279619    -0.03000
Br399      Br  0.90651407  0.36012869  0.22156445    -0.01500
Br400      Br  0.93893646  0.34876933  0.10508950    -0.01600
Br401      Br  0.87019579  0.20056885  0.23492474    -0.01600
Br402      Br  0.90743796  0.18824650  0.12006839    -0.01600
C403        C  0.76644731  0.34052127  0.16623879    -0.02700
C404        C  0.77284460  0.36396557  0.20810764     0.07000
C405        C  0.77535103  0.40342913  0.20045433    -0.02800
C406        C  0.76826695  0.41957928  0.15214246    -0.02800
C407        C  0.76290206  0.39605386  0.10965141     0.07100
C408        C  0.76398816  0.35618987  0.11703256    -0.03000
Br409      Br  0.76713998  0.32192906  0.06025814    -0.01500
Br410      Br  0.76432624  0.28621034  0.17524044    -0.01600
Br411      Br  0.76514981  0.47397001  0.14608051    -0.01600
Br412      Br  0.78972292  0.43560830  0.25578717    -0.01600
C413        C  0.81261804  0.42868319  0.48448353    -0.02700
C414        C  0.79413634  0.41500202  0.44106562     0.07000
C415        C  0.76285399  0.43502550  0.42107156    -0.02800
C416        C  0.75110386  0.46918226  0.44308255    -0.02800
C417        C  0.77256716  0.48545659  0.48284003     0.07100
C418        C  0.80365674  0.46466884  0.50319673    -0.03000
Br419      Br  0.83711518  0.48536545  0.55371256    -0.01500
Br420      Br  0.85018469  0.39831547  0.51943487    -0.01600
Br421      Br  0.70385126  0.49137118  0.42001871    -0.01600
Br422      Br  0.73402013  0.41413859  0.36569294    -0.01600
C423        C  0.94863039  0.32949842  0.45852421    -0.02700
C424        C  0.92565620  0.30006579  0.43985311     0.07000
C425        C  0.94033455  0.26293307  0.43824570    -0.02800
C426        C  0.97500218  0.25435646  0.46175579    -0.02800
C427        C  0.99653004  0.28334153  0.48345895     0.07100
C428        C  0.98416410  0.32102616  0.47981463    -0.03000
Br429      Br  0.01733240  0.36139839  0.49982878    -0.01500
Br430      Br  0.93340434  0.38176157  0.45321865    -0.01600
Br431      Br  0.99329402  0.20286127  0.46361265    -0.01600
Br432      Br  0.91645004  0.22509310  0.39690933    -0.01600
C433        C  0.77606572  0.11582298  0.39576739    -0.02700
C434        C  0.78770388  0.10772826  0.44612280     0.07000
C435        C  0.81509463  0.13112636  0.46856969    -0.02800
C436        C  0.82237108  0.16702060  0.44785500    -0.02800
C437        C  0.80758803  0.17725258  0.39963858     0.07100
C438        C  0.78821098  0.14956332  0.37138288    -0.03000
Br439      Br  0.77564103  0.15846338  0.30092274    -0.01500
Br440      Br  0.74054726  0.08358787  0.36163608    -0.01600
Br441      Br  0.84950426  0.20257966  0.48924190    -0.01600
Br442      Br  0.84124877  0.11474581  0.52965564    -0.01600
C443        C  0.64040036  0.23185335  0.43080743    -0.02700
C444        C  0.62355568  0.25658079  0.46545079     0.07000
C445        C  0.63909315  0.29256893  0.47293480    -0.02800
C446        C  0.67255259  0.30344079  0.44739459    -0.02800
C447        C  0.69081721  0.27816039  0.41362481     0.07100
C448        C  0.67344433  0.24260736  0.40426232    -0.03000
Br449      Br  0.69495084  0.20616281  0.35832003    -0.01500
Br450      Br  0.62010085  0.18141689  0.42377077    -0.01600
Br451      Br  0.69242228  0.35327486  0.46007436    -0.01600
Br452      Br  0.61452069  0.32689365  0.51905225    -0.01600
C453        C  0.84275880  0.18852725  0.91176727    -0.02700
C454        C  0.81649689  0.21662175  0.89654502     0.07000
C455        C  0.82598628  0.25513348  0.90292631    -0.02800
C456        C  0.85935031  0.26502408  0.92869922    -0.02800
C457        C  0.88344475  0.23671374  0.94823086     0.07100
C458        C  0.87574694  0.19852827  0.93859283    -0.03000
Br459      Br  0.90937214  0.16003446  0.96480258    -0.01500
Br460      Br  0.83416028  0.13654620  0.89432123    -0.01600
Br461      Br  0.87064266  0.31753824  0.94103998    -0.01600
Br462      Br  0.79249301  0.29505798  0.88068029    -0.01600
C463        C  0.67294189  0.31614341  0.94690515    -0.02700
C464        C  0.68816372  0.30853257  0.89847915     0.07000
C465        C  0.70387744  0.33855987  0.86959534    -0.02800
C466        C  0.71337736  0.37263412  0.89379042    -0.02800
C467        C  0.70313955  0.37787374  0.94535946     0.07100
C468        C  0.67817993  0.35164084  0.96857501    -0.03000
Br469      Br  0.65247151  0.36343388  0.03153390    -0.01500
Br470      Br  0.64697311  0.27769417  0.98601704    -0.01600
Br471      Br  0.74359758  0.40928779  0.85692216    -0.01600
Br472      Br  0.71569141  0.33205694  0.79857136    -0.01600
C473        C  0.74044668  0.08862638  0.70405813    -0.02700
C474        C  0.72795746  0.12641295  0.70582187     0.07000
C475        C  0.71711572  0.14515816  0.66053081    -0.02800
C476        C  0.71653909  0.12562082  0.61454105    -0.02800
C477        C  0.73122299  0.08861186  0.61206716     0.07100
C478        C  0.74366654  0.07027632  0.65697541    -0.03000
Br479      Br  0.76677734  0.02104052  0.65409023    -0.01500
Br480      Br  0.75363887  0.06243564  0.76624441    -0.01600
Br481      Br  0.69302734  0.14886392  0.55548464    -0.01600
Br482      Br  0.70309956  0.19779974  0.66056786    -0.01600
C483        C  0.59875177  0.24010835  0.71043300    -0.02700
C484        C  0.60637044  0.20302730  0.72794133     0.07000
C485        C  0.59627951  0.17204160  0.69763533    -0.02800
C486        C  0.58309757  0.17832465  0.64789799    -0.02800
C487        C  0.57576470  0.21536953  0.63050746     0.07100
C488        C  0.58158904  0.24602758  0.66289800    -0.03000
Br489      Br  0.56785020  0.29633433  0.64064602    -0.01500
Br490      Br  0.61493051  0.28306620  0.74891937    -0.01600
Br491      Br  0.58111772  0.13675183  0.60147520    -0.01600
Br492      Br  0.60490106  0.12091048  0.72135842    -0.01600
C493        C  0.64125557  0.69097345  0.96670374    -0.02700
C494        C  0.62102594  0.72149111  0.94464850     0.07000
C495        C  0.63412188  0.73710397  0.89813951    -0.02800
C496        C  0.66929637  0.72542845  0.87744150    -0.02800
C497        C  0.69164584  0.69792273  0.90298318     0.07100
C498        C  0.67659941  0.67978353  0.94672262    -0.03000
Br499      Br  0.70494531  0.64066127  0.98148144    -0.01500
Br500      Br  0.62073764  0.66478410  0.02558344    -0.01600
Br501      Br  0.68876499  0.75088066  0.81751936    -0.01600
Br502      Br  0.60594741  0.77667575  0.86444441    -0.01600
C503        C  0.70284821  0.03680104  0.93704391    -0.02700
C504        C  0.72089997  0.07173455  0.94583906     0.07000
C505        C  0.75225573  0.07265831  0.97952839    -0.02800
C506        C  0.76781077  0.03866819  0.99905096    -0.02800
C507        C  0.74993481  0.00397806  0.98944747     0.07100
C508        C  0.71606005  0.00363375  0.96123297    -0.03000
Br509      Br  0.68502183  0.95882704  0.96131784    -0.01500
Br510      Br  0.65825759  0.03413012  0.89475374    -0.01600
Br511      Br  0.81381184  0.03947163  0.03869870    -0.01600
Br512      Br  0.77378544  0.11995584  0.00072193    -0.01600
C513        C  0.78732983  0.83076073  0.89699365    -0.02700
C514        C  0.81007112  0.80234382  0.92064613     0.07000
C515        C  0.83159976  0.81275355  0.96397171    -0.02800
C516        C  0.82608724  0.84826479  0.98643091    -0.02800
C517        C  0.79755809  0.87307075  0.96879197     0.07100
C518        C  0.77978856  0.86507198  0.92202675    -0.03000
Br519      Br  0.74390441  0.89977872  0.89178085    -0.01500
Br520      Br  0.76782641  0.82502241  0.82883081    -0.01600
Br521      Br  0.86001410  0.86419650  0.03938156    -0.01600
Br522      Br  0.86976304  0.78007499  0.99406014    -0.01600
C523        C  0.81710781  0.75534243  0.44876555    -0.02700
C524        C  0.80797419  0.79067993  0.42634070     0.07000
C525        C  0.83551915  0.81957611  0.42523899    -0.02800
C526        C  0.87186592  0.81292741  0.44608585    -0.02800
C527        C  0.88012294  0.77793766  0.46949906     0.07100
C528        C  0.85301960  0.74894958  0.46981173    -0.03000
Br529      Br  0.86502870  0.70026069  0.50031944    -0.01500
Br530      Br  0.78003780  0.71602536  0.45571420    -0.01600
Br531      Br  0.91031595  0.85148973  0.44344373    -0.01600
Br532      Br  0.82312599  0.86846807  0.39708643    -0.01600
C533        C  0.72643079  0.65690609  0.37782293    -0.02700
C534        C  0.70052400  0.68206359  0.40089365     0.07000
C535        C  0.68225219  0.67060953  0.44662323    -0.02800
C536        C  0.69152960  0.63607427  0.47016206    -0.02800
C537        C  0.72186324  0.61430072  0.45178007     0.07100
C538        C  0.73755493  0.62334387  0.40362749    -0.03000
Br539      Br  0.77647533  0.59182174  0.37454433    -0.01500
Br540      Br  0.75127996  0.67080523  0.31490725    -0.01600
Br541      Br  0.66208813  0.61830962  0.52773065    -0.01600
Br542      Br  0.64737748  0.70329370  0.48174755    -0.01600
C543        C  0.77377970  0.88550810  0.21642824    -0.02700
C544        C  0.73489097  0.88535805  0.23036775     0.07000
C545        C  0.70959541  0.90862921  0.20134902    -0.02800
C546        C  0.72073280  0.92284044  0.15342947    -0.02800
C547        C  0.75837759  0.91827457  0.13661733     0.07100
C548        C  0.78539996  0.90272474  0.17025082    -0.03000
Br549      Br  0.83855425  0.90730646  0.15435478    -0.01500
Br550      Br  0.81200782  0.86432344  0.26068132    -0.01600
Br551      Br  0.68308786  0.94593201  0.10944583    -0.01600
Br552      Br  0.65981665  0.92333770  0.22589929    -0.01600
C553        C  0.62794843  0.79407003  0.11144039    -0.02700
C554        C  0.59150606  0.77807239  0.10721162     0.07000
C555        C  0.57192817  0.76706154  0.15184511    -0.02800
C556        C  0.58907016  0.77109805  0.20001436    -0.02800
C557        C  0.62659763  0.78487656  0.20406629     0.07100
C558        C  0.64613436  0.79569874  0.15884477    -0.03000
Br559      Br  0.69839661  0.81230305  0.15925355    -0.01500
Br560      Br  0.65267370  0.81574992  0.05197639    -0.01600
Br561      Br  0.56189440  0.75438528  0.25972093    -0.01600
Br562      Br  0.52243973  0.74448444  0.14749775    -0.01600
C563        C  0.71984615  0.92027466  0.48384731    -0.02700
C564        C  0.69028769  0.91921043  0.44736476     0.07000
C565        C  0.67279569  0.95349607  0.43182845    -0.02800
C566        C  0.68594620  0.98819182  0.45048030    -0.02800
C567        C  0.71735289  0.98910855  0.48328597     0.07100
C568        C  0.73397773  0.95517861  0.50039200    -0.03000
Br569      Br  0.77778209  0.95669611  0.54421991    -0.01500
Br570      Br  0.74251848  0.87468166  0.51106960    -0.01600
Br571      Br  0.66042278  0.03470048  0.43225580    -0.01600
Br572      Br  0.62969494  0.95337687  0.38662666    -0.01600
C573        C  0.25254496  0.81849676  0.42223756    -0.02700
C574        C  0.21590590  0.80650918  0.40808100     0.07000
C575        C  0.18495852  0.83163310  0.41290403    -0.02800
C576        C  0.19067139  0.86810822  0.43255852    -0.02800
C577        C  0.22721796  0.87949245  0.44748160     0.07100
C578        C  0.25817340  0.85489932  0.44131868    -0.03000
Br579      Br  0.30812987  0.87043473  0.46278912    -0.01500
Br580      Br  0.29455749  0.78382878  0.42231655    -0.01600
Br581      Br  0.14835499  0.90189178  0.44167309    -0.01600
Br582      Br  0.13464531  0.81571743  0.39405579    -0.01600
C583        C  0.52873540  0.73585161  0.45340446    -0.02700
C584        C  0.50610805  0.75918070  0.48448539     0.07000
C585        C  0.51669018  0.79737966  0.49119782    -0.02800
C586        C  0.55027764  0.81144967  0.46872935    -0.02800
C587        C  0.57253431  0.78808042  0.43765768     0.07100
C588        C  0.56098699  0.75064717  0.42882817    -0.03000
Br589      Br  0.58819670  0.72000278  0.38060694    -0.01500
Br590      Br  0.51701836  0.68285788  0.44585355    -0.01600
Br591      Br  0.56643521  0.86247393  0.48165336    -0.01600
Br592      Br  0.48451192  0.83159267  0.52837348    -0.01600
C593        C  0.35974887  0.66959162  0.46785378    -0.02700
C594        C  0.38307762  0.70005147  0.45265319     0.07000
C595        C  0.37631924  0.71845256  0.40534938    -0.02800
C596        C  0.34399667  0.70909547  0.37679106    -0.02800
C597        C  0.31755486  0.68315538  0.39682253     0.07100
C598        C  0.32728015  0.66101679  0.43956209    -0.03000
Br599      Br  0.29575534  0.61903073  0.45920326    -0.01500
Br600      Br  0.37082676  0.64074805  0.52888239    -0.01600
Br601      Br  0.33366717  0.73493514  0.31320859    -0.01600
Br602      Br  0.40710303  0.76055421  0.38268626    -0.01600
C603        C  0.17264064  0.83841027  0.95724342    -0.02700
C604        C  0.18139831  0.82092497  0.91044716     0.07000
C605        C  0.15130950  0.80280414  0.88443925    -0.02800
C606        C  0.11739041  0.79328156  0.91027303    -0.02800
C607        C  0.11199523  0.80457544  0.96113425     0.07100
C608        C  0.13801486  0.83049557  0.98203251    -0.03000
Br609      Br  0.12647869  0.85552373  0.04526078    -0.01500
Br610      Br  0.20661720  0.87415124  0.98837723    -0.01600
Br611      Br  0.08019137  0.76290697  0.87561391    -0.01600
Br612      Br  0.15452666  0.79265422  0.81258601    -0.01600
C613        C  0.30879610  0.67237842  0.90372138    -0.02700
C614        C  0.27869172  0.69609865  0.88835962     0.07000
C615        C  0.24100367  0.68406073  0.89556750    -0.02800
C616        C  0.23324772  0.65150092  0.92455564    -0.02800
C617        C  0.26323228  0.62892061  0.94268214     0.07100
C618        C  0.30093065  0.63787787  0.92910912    -0.03000
Br619      Br  0.34136756  0.60325473  0.94564573    -0.01500
Br620      Br  0.36043269  0.68828543  0.89234126    -0.01600
Br621      Br  0.18148568  0.63913734  0.94228869    -0.01600
Br622      Br  0.19978084  0.71249997  0.86670197    -0.01600
C623        C  0.22978345  0.88118941  0.68539585    -0.02700
C624        C  0.26116089  0.89364929  0.71425616     0.07000
C625        C  0.28067727  0.92656223  0.69788833    -0.02800
C626        C  0.27422976  0.94195695  0.64892794    -0.02800
C627        C  0.24546011  0.92669641  0.61789675     0.07100
C628        C  0.22090970  0.89907005  0.63893416    -0.03000
Br629      Br  0.17448944  0.88545863  0.60432395    -0.01500
Br630      Br  0.20052353  0.83720578  0.70474006    -0.01600
Br631      Br  0.30724142  0.98178909  0.62447676    -0.01600
Br632      Br  0.31601022  0.95117788  0.74268512    -0.01600
C633        C  0.35849011  0.79606488  0.65663178    -0.02700
C634        C  0.37053451  0.78362387  0.70528070     0.07000
C635        C  0.40153192  0.75834199  0.70923123    -0.02800
C636        C  0.41904030  0.74440775  0.66480850    -0.02800
C637        C  0.40649477  0.75669928  0.61655072     0.07100
C638        C  0.37652284  0.78289694  0.61272789    -0.03000
Br639      Br  0.36015256  0.80133243  0.54677295    -0.01500
Br640      Br  0.31798439  0.83236267  0.64879159    -0.01600
Br641      Br  0.45815935  0.70644653  0.66965171    -0.01600
Br642      Br  0.41882412  0.74130770  0.77512879    -0.01600
C643        C  0.42475520  0.77484656  0.97174416    -0.02700
C644        C  0.42102978  0.80226205  0.93177349     0.07000
C645        C  0.45486197  0.81944022  0.91255039    -0.02800
C646        C  0.49063108  0.80996950  0.93334124    -0.02800
C647        C  0.49403973  0.78137018  0.97059772     0.07100
C648        C  0.46101995  0.76389379  0.98961290    -0.03000
Br649      Br  0.46565204  0.72383267  0.03964453    -0.01500
Br650      Br  0.38113312  0.75231705  0.00519437    -0.01600
Br651      Br  0.53517786  0.83801811  0.91296739    -0.01600
Br652      Br  0.45439726  0.85511257  0.85615389    -0.01600
C653        C  0.53597170  0.23588563  0.95035959    -0.02700
C654        C  0.51552761  0.21342503  0.98542946     0.07000
C655        C  0.52929213  0.17713377  0.99889202    -0.02800
C656        C  0.56491272  0.16482414  0.98069284    -0.02800
C657        C  0.58550966  0.18770764  0.94631615     0.07100
C658        C  0.56994242  0.22239855  0.92947880    -0.03000
Br659      Br  0.59390535  0.25087490  0.87543908    -0.01500
Br660      Br  0.51848853  0.28605671  0.93202976    -0.01600
Br661      Br  0.58611061  0.11749528  0.00411075    -0.01600
Br662      Br  0.49826706  0.14316016  0.03874911    -0.01600
C663        C  0.34355479  0.30813247  0.91767544    -0.02700
C664        C  0.31661684  0.27927280  0.91009572     0.07000
C665        C  0.32602664  0.24164521  0.92372155    -0.02800
C666        C  0.36116951  0.23317867  0.94608103    -0.02800
C667        C  0.38681752  0.26222404  0.95645715     0.07100
C668        C  0.37841457  0.29965290  0.94158126    -0.03000
Br669      Br  0.41427167  0.33918720  0.95567018    -0.01500
Br670      Br  0.33294784  0.35903030  0.89492558    -0.01600
Br671      Br  0.37337500  0.18194956  0.96640664    -0.01600
Br672      Br  0.28973753  0.20167957  0.91770494    -0.01600
C673        C  0.24677685  0.97463606  0.94765796    -0.02700
C674        C  0.26835716  0.99307478  0.98533350     0.07000
C675        C  0.30487417  0.97870955  0.99787219    -0.02800
C676        C  0.31946498  0.94692251  0.97244438    -0.02800
C677        C  0.29818538  0.92962795  0.93408953     0.07100
C678        C  0.26218936  0.94404504  0.92106428    -0.03000
Br679      Br  0.23333228  0.92154037  0.86687330    -0.01500
Br680      Br  0.19475193  0.98914474  0.93386195    -0.01600
Br681      Br  0.37005284  0.92868586  0.98687644    -0.01600
Br682      Br  0.33646675  0.00281786  0.04774629    -0.01600
C683        C  0.22281690  0.12339336  0.90637768    -0.02700
C684        C  0.20783658  0.11698344  0.95583322     0.07000
C685        C  0.17922363  0.14137802  0.97411938    -0.02800
C686        C  0.17105946  0.17515715  0.94786489    -0.02800
C687        C  0.19061069  0.18431831  0.90282958     0.07100
C688        C  0.21257877  0.15635141  0.87897579    -0.03000
Br689      Br  0.23149612  0.16461793  0.81080339    -0.01500
Br690      Br  0.26138875  0.09094426  0.87804179    -0.01600
Br691      Br  0.13257561  0.20885611  0.97281760    -0.01600
Br692      Br  0.15164795  0.12943133  0.03584150    -0.01600
C693        C  0.14127411  0.27278328  0.41807792    -0.02700
C694        C  0.12632806  0.24500705  0.45128225     0.07000
C695        C  0.13909211  0.20744694  0.44845698    -0.02800
C696        C  0.16935680  0.19847842  0.41592078    -0.02800
C697        C  0.18770084  0.22724500  0.38796241     0.07100
C698        C  0.17237922  0.26398643  0.38684176    -0.03000
Br699      Br  0.19549590  0.30265910  0.34495934    -0.01500
Br700      Br  0.12052997  0.32331840  0.41758900    -0.01600
Br701      Br  0.18636640  0.14703315  0.40967935    -0.01600
Br702      Br  0.11550754  0.16862448  0.48961990    -0.01600
C703        C  0.30487137  0.35318249  0.37829403    -0.02700
C704        C  0.31834945  0.32175577  0.40753378     0.07000
C705        C  0.33574863  0.32938198  0.45512219    -0.02800
C706        C  0.33330005  0.36578491  0.47553142    -0.02800
C707        C  0.30981460  0.39329593  0.45254149     0.07100
C708        C  0.30038554  0.38886018  0.40106939    -0.03000
Br709      Br  0.28390860  0.43172021  0.36088249    -0.01500
Br710      Br  0.29274930  0.34881721  0.30707214    -0.01600
Br711      Br  0.36153104  0.37838076  0.53601209    -0.01600
Br712      Br  0.36082116  0.29114740  0.49636284    -0.01600
C713        C  0.29364654  0.14199286  0.16050089    -0.02700
C714        C  0.27605615  0.13310704  0.20746119     0.07000
C715        C  0.25188759  0.10128485  0.21104346    -0.02800
C716        C  0.24403862  0.07987420  0.16733706    -0.02800
C717        C  0.26179137  0.08911205  0.12085902     0.07100
C718        C  0.28785828  0.11901939  0.11836622    -0.03000
Br719      Br  0.31625988  0.12804968  0.05651810    -0.01500
Br720      Br  0.32571268  0.18566860  0.15204982    -0.01600
Br721      Br  0.20822764  0.03888620  0.17034697    -0.01600
Br722      Br  0.22747785  0.08861011  0.27471211    -0.01600
C723        C  0.44546280  0.22466576  0.16676098    -0.02700
C724        C  0.43202342  0.25088467  0.12990107     0.07000
C725        C  0.40306348  0.27634616  0.14432168    -0.02800
C726        C  0.38042018  0.26853553  0.18709048    -0.02800
C727        C  0.39036528  0.23856462  0.22044509     0.07100
C728        C  0.42516181  0.21943678  0.21264027    -0.03000
Br729      Br  0.44512008  0.18599556  0.26475432    -0.01500
Br730      Br  0.49098898  0.19550937  0.15603452    -0.01600
Br731      Br  0.33316559  0.29579949  0.19392887    -0.01600
Br732      Br  0.39449830  0.32256679  0.10596720    -0.01600
C733        C  0.47414641  0.17733532  0.48958725    -0.02700
C734        C  0.49179954  0.21272768  0.48116568     0.07000
C735        C  0.47410722  0.23989866  0.44923083    -0.02800
C736        C  0.43961616  0.23135626  0.42539846    -0.02800
C737        C  0.42157226  0.19663977  0.43572424     0.07100
C738        C  0.43862904  0.16976256  0.46795474    -0.03000
Br739      Br  0.41415473  0.12164035  0.47982544    -0.01500
Br740      Br  0.49946298  0.13755324  0.52671560    -0.01600
Br741      Br  0.41695132  0.26738271  0.37863115    -0.01600
Br742      Br  0.49568194  0.28963757  0.43954174    -0.01600
C743        C  0.26374427  0.08288191  0.47712094    -0.02700
C744        C  0.28619410  0.08563011  0.43235807     0.07000
C745        C  0.29598087  0.05191073  0.40677805    -0.02800
C746        C  0.28550044  0.01640103  0.42714844    -0.02800
C747        C  0.26146289  0.01388693  0.47015679     0.07100
C748        C  0.25005990  0.04751658  0.49431220    -0.03000
Br749      Br  0.21433328  0.04589840  0.55027296    -0.01500
Br750      Br  0.25319880  0.12667444  0.51816040    -0.01600
Br751      Br  0.30747751  0.97147278  0.39795342    -0.01600
Br752      Br  0.32225016  0.05306236  0.34205094    -0.01600
loop_ 
_geom_bond_atom_site_label_1 
_geom_bond_atom_site_label_2 
_geom_bond_distance 
_geom_bond_site_symmetry_2 
_ccdc_geom_bond_type 
O1          Cr19   2.006       .  S
O1            C9   1.264       .  A
O2          Cr19   1.975       .  S
O2            C3   1.258       .  A
C3            O4   1.267       .  A
C3          C704   1.505       .  S
O4          Cr20   2.018       .  S
O5          Cr20   1.985       .  S
O5            C6   1.259       .  A
C6            O7   1.264       .  A
C6          C727   1.487       .  S
O7          Cr21   2.001       .  S
O8          Cr21   1.959       .  S
O8            C9   1.254       .  A
C9          C737   1.463       .  S
O10         Cr19   1.981       .  S
O10          C18   1.259       .  A
O11         Cr19   1.989       .  S
O11          C12   1.262       .  A
C12          O13   1.262       .  A
C12         C697   1.466       .  S
O13         Cr20   1.987       .  S
O14         Cr20   2.024       .  S
O14          C15   1.272       .  A
C15          O16   1.260       .  A
C15         C714   1.482       .  S
O16         Cr21   1.970       .  S
O17         Cr21   2.016       .  S
O17          C18   1.266       .  A
C18         C744   1.499       .  S
Cr19         O22   1.759       .  S
Cr20         O22   1.763       .  S
Cr21         O22   1.766       .  S
C23         C674   1.492   1_544  S
C23          N24   1.366       .  A
C23          N28   1.360   1_554  A
N24          C25   1.362       .  A
C25         C717   1.473       .  S
C25          N26   1.353       .  A
N26          C27   1.351   1_554  A
C27         C684   1.485       .  S
C27          N28   1.353       .  A
C29         C654   1.479   1_554  S
C29          N30   1.360   1_554  A
C29          N34   1.366       .  A
N30          C31   1.353       .  A
C31         C667   1.468       .  S
C31          N32   1.349   1_556  A
N32          C33   1.356       .  A
C33         C724   1.497       .  S
C33          N34   1.363       .  A
O35         Cr53   2.010       .  S
O35          C43   1.265       .  A
O36         Cr53   1.985       .  S
O36          C37   1.261       .  A
C37          O38   1.265       .  A
C37         C604   1.508       .  S
O38         Cr54   2.009       .  S
O39         Cr54   1.982       .  S
O39          C40   1.257       .  A
C40          O41   1.265       .  A
C40         C624   1.494       .  S
O41         Cr55   2.009       .  S
O42         Cr55   1.975       .  S
O42          C43   1.258       .  A
C43         C677   1.477       .  S
O44         Cr53   1.986       .  S
O44          C52   1.260       .  A
O45         Cr53   1.999       .  S
O45          C46   1.264       .  A
C46          O47   1.262       .  A
C46         C614   1.474       .  S
O47         Cr54   1.990       .  S
O48         Cr54   2.012       .  S
O48          C49   1.270       .  A
C49          O50   1.265       .  A
C49         C634   1.486       .  S
O50         Cr55   1.986       .  S
O51         Cr55   2.023       .  S
O51          C52   1.267       .  A
C52         C644   1.514       .  S
Cr53         O56   1.764       .  S
Cr54         O56   1.764       .  S
Cr55         O56   1.772       .  S
C57         C584   1.485       .  S
C57          N58   1.363       .  A
C57          N62   1.357       .  A
N58          C59   1.361       .  A
C59         C637   1.478       .  S
C59          N60   1.356       .  A
N60          C61   1.355       .  A
C61         C594   1.479       .  S
C61          N62   1.353       .  A
C63         C747   1.493   1_565  S
C63          N64   1.363       .  A
C63          N68   1.365       .  A
N64          C65   1.357       .  A
C65         C627   1.491       .  S
C65          N66   1.353       .  A
N66          C67   1.351       .  A
C67         C577   1.473       .  S
C67          N68   1.359       .  A
O69         Cr87   1.960       .  S
O69          C77   1.254       .  A
O70         Cr87   1.982       .  S
O70          C71   1.262       .  A
C71          O72   1.268       .  A
C71         C534   1.491       .  S
O72         Cr88   2.008       .  S
O73         Cr88   2.001       .  S
O73          C74   1.263       .  A
C74          O75   1.264       .  A
C74         C557   1.498       .  S
O75         Cr89   1.991       .  S
O76         Cr89   2.016       .  S
O76          C77   1.266       .  A
C77         C587   1.477       .  S
O78         Cr87   2.005       .  S
O78          C86   1.261       .  A
O79         Cr87   1.987       .  S
O79          C80   1.260       .  A
C80          O81   1.264       .  A
C80         C524   1.482       .  S
O81         Cr88   2.012       .  S
O82         Cr88   2.012       .  S
O82          C83   1.270       .  A
C83          O84   1.259       .  A
C83         C544   1.508       .  S
O84         Cr89   1.980       .  S
O85         Cr89   1.979       .  S
O85          C86   1.257       .  A
C86         C564   1.490       .  S
Cr87         O90   1.774       .  S
Cr88         O90   1.777       .  S
Cr89         O90   1.777       .  S
C91         C507   1.481   1_564  S
C91          N92   1.363   1_554  A
C91          N96   1.358       .  A
N92          C93   1.362   1_556  A
C93         C517   1.499   1_554  S
C93          N94   1.362       .  A
N94          C95   1.359       .  A
C95         C547   1.484       .  S
C95          N96   1.358       .  A
C97         C647   1.490       .  S
C97          N98   1.369       .  A
C97         N102   1.367   1_556  A
N98          C99   1.364       .  A
C99         C494   1.494       .  S
C99         N100   1.353   1_556  A
N100        C101   1.353       .  A
C101        C554   1.489       .  S
C101        N102   1.362       .  A
O103       Cr121   2.010       .  S
O103        C111   1.263       .  A
O104       Cr121   1.976       .  S
O104        C105   1.263       .  A
C105        O106   1.269       .  A
C105        C454   1.487       .  S
O106       Cr122   2.019       .  S
O107       Cr122   1.991       .  S
O107        C108   1.265       .  A
C108        O109   1.262       .  A
C108        C474   1.474       .  S
O109       Cr123   1.991       .  S
O110       Cr123   1.986       .  S
O110        C111   1.260       .  A
C111        C504   1.492       .  S
O112       Cr121   1.961       .  S
O112        C120   1.255       .  A
O113       Cr121   1.996       .  S
O113        C114   1.262       .  A
C114        O115   1.258       .  A
C114        C464   1.483       .  S
O115       Cr122   1.990       .  S
O116       Cr122   1.986       .  S
O116        C117   1.261       .  A
C117        O118   1.261       .  A
C117        C484   1.472       .  S
O118       Cr123   1.984       .  S
O119       Cr123   2.016       .  S
O119        C120   1.266       .  A
C120        C657   1.478       .  S
Cr121       O124   1.774       .  S
Cr122       O124   1.776       .  S
Cr123       O124   1.779       .  S
C125        C734   1.479       .  S
C125        N126   1.361       .  A
C125        N130   1.359       .  A
N126        C127   1.358       .  A
C127        C487   1.468       .  S
C127        N128   1.355       .  A
N128        C129   1.353       .  A
C129        C444   1.470       .  S
C129        N130   1.356       .  A
C131        C567   1.474   1_545  S
C131        N132   1.364       .  A
C131        N136   1.365       .  A
N132        C133   1.358       .  A
C133        C477   1.478       .  S
C133        N134   1.349       .  A
N134        C135   1.352       .  A
C135        C434   1.487       .  S
C135        N136   1.359       .  A
O137       Cr155   2.003       .  S
O137        C145   1.264       .  A
O138       Cr155   1.966       .  S
O138        C139   1.260       .  A
C139        O140   1.267       .  A
C139        C447   1.496       .  S
O140       Cr156   2.009       .  S
O141       Cr156   1.992       .  S
O141        C142   1.264       .  A
C142        O143   1.259       .  A
C142        C404   1.477       .  S
O143       Cr157   1.986       .  S
O144       Cr157   1.976       .  S
O144        C145   1.261       .  A
C145        C414   1.481       .  S
O146       Cr155   1.971       .  S
O146        C154   1.258       .  A
O147       Cr155   1.990       .  S
O147        C148   1.260       .  A
C148        O149   1.262       .  A
C148        C437   1.488       .  S
O149       Cr156   1.998       .  S
O150       Cr156   2.000       .  S
O150        C151   1.265       .  A
C151        O152   1.261       .  A
C151        C397   1.473       .  S
O152       Cr157   1.978       .  S
O153       Cr157   1.992       .  S
O153        C154   1.260       .  A
C154        C424   1.476       .  S
Cr155       O158   1.771       .  S
Cr156       O158   1.769       .  S
Cr157       O158   1.775       .  S
C159        C387   1.492   1_655  S
C159        N160   1.363       .  A
C159        N164   1.358   1_556  A
N160        C161   1.359       .  A
C161        C457   1.472       .  S
C161        N162   1.355   1_556  A
N162        C163   1.355       .  A
C163        C394   1.474       .  S
C163        N164   1.354       .  A
C165        C377   1.484       .  S
C165        N166   1.361       .  A
C165        N170   1.363   1_556  A
N166        C167   1.357       .  A
C167        C467   1.488       .  S
C167        N168   1.351   1_556  A
N168        C169   1.348       .  A
C169        C407   1.493       .  S
C169        N170   1.362       .  A
O171       Cr189   1.968       .  S
O171        C179   1.257       .  A
O172       Cr189   2.004       .  S
O172        C173   1.266       .  A
C173        O174   1.256       .  A
C173        C687   1.479       .  S
O174       Cr190   1.979       .  S
O175       Cr190   1.994       .  S
O175        C176   1.262       .  A
C176        O177   1.258       .  A
C176        C344   1.471       .  S
O177       Cr191   1.975       .  S
O178       Cr191   2.013       .  S
O178        C179   1.263       .  A
C179        C384   1.484       .  S
O180       Cr189   2.021       .  S
O180        C188   1.267       .  A
O181       Cr189   1.981       .  S
O181        C182   1.262       .  A
C182        O183   1.269       .  A
C182        C664   1.484       .  S
O183       Cr190   2.019       .  S
O184       Cr190   1.989       .  S
O184        C185   1.264       .  A
C185        O186   1.261       .  A
C185        C354   1.471       .  S
O186       Cr191   1.991       .  S
O187       Cr191   1.966       .  S
O187        C188   1.257       .  A
C188        C364   1.481       .  S
Cr189       O192   1.771       .  S
Cr190       O192   1.775       .  S
Cr191       O192   1.771       .  S
C193        C334   1.488       .  S
C193        N194   1.366       .  A
C193        N198   1.368       .  A
N194        C195   1.359       .  A
C195        C357   1.477       .  S
C195        N196   1.346       .  A
N196        C197   1.352       .  A
C197        C707   1.494       .  S
C197        N198   1.363       .  A
C199        C427   1.462   1_455  S
C199        N200   1.352       .  A
C199        N204   1.359       .  A
N200        C201   1.350       .  A
C201        C694   1.466       .  S
C201        N202   1.359       .  A
N202        C203   1.361       .  A
C203        C347   1.475       .  S
C203        N204   1.359       .  A
O205       Cr223   1.960       .  S
O205        C213   1.256       .  A
O206       Cr223   1.995       .  S
O206        C207   1.264       .  A
C207        O208   1.258       .  A
C207        C597   1.474       .  S
O208       Cr224   1.984       .  S
O209       Cr224   1.990       .  S
O209        C210   1.263       .  A
C210        O211   1.264       .  A
C210        C314   1.480       .  S
O211       Cr225   1.992       .  S
O212       Cr225   2.028       .  S
O212        C213   1.268       .  A
C213        C337   1.492       .  S
O214       Cr223   2.011       .  S
O214        C222   1.262       .  A
O215       Cr223   1.979       .  S
O215        C216   1.260       .  A
C216        O217   1.268       .  A
C216        C574   1.484       .  S
O217       Cr224   2.020       .  S
O218       Cr224   1.989       .  S
O218        C219   1.264       .  A
C219        O220   1.262       .  A
C219        C307   1.471       .  S
O220       Cr225   1.992       .  S
O221       Cr225   1.981       .  S
O221        C222   1.258       .  A
C222        C327   1.494       .  S
Cr223       O226   1.771       .  S
Cr224       O226   1.774       .  S
Cr225       O226   1.775       .  S
C227        C297   1.500   1_454  S
C227        N228   1.364       .  A
C227        N232   1.366   1_554  A
N228        C229   1.358       .  A
C229        C304   1.478       .  S
C229        N230   1.351       .  A
N230        C231   1.349   1_554  A
C231        C607   1.495       .  S
C231        N232   1.359       .  A
C233        C367   1.474       .  S
C233        N234   1.359       .  A
C233        N238   1.358   1_556  A
N234        C235   1.357       .  A
C235        C617   1.472       .  S
C235        N236   1.360   1_556  A
N236        C237   1.359       .  A
C237        C317   1.478       .  S
C237        N238   1.356       .  A
O239       Cr257   2.010       .  S
O239        C247   1.264       .  A
O240       Cr257   1.974       .  S
O240        C241   1.258       .  A
C241        O242   1.267       .  A
C241        C514   1.510       .  S
O242       Cr258   2.020       .  S
O243       Cr258   1.989       .  S
O243        C244   1.259       .  A
C244        O245   1.263       .  A
C244        C277   1.500       .  S
O245       Cr259   2.002       .  S
O246       Cr259   1.980       .  S
O246        C247   1.257       .  A
C247        C294   1.485       .  S
O248       Cr257   1.968       .  S
O248        C256   1.261       .  A
O249       Cr257   2.010       .  S
O249        C250   1.266       .  A
C250        O251   1.265       .  A
C250        C497   1.493       .  S
O251       Cr258   1.996       .  S
O252       Cr258   2.028       .  S
O252        C253   1.271       .  A
C253        O254   1.262       .  A
C253        C284   1.486       .  S
O254       Cr259   1.980       .  S
O255       Cr259   2.023       .  S
O255        C256   1.269       .  A
C256        C374   1.486       .  S
Cr257       O260   1.771       .  S
Cr258       O260   1.768       .  S
Cr259       O260   1.777       .  S
C261        C417   1.498       .  S
C261        N262   1.364       .  A
C261        N266   1.361       .  A
N262        C263   1.359       .  A
C263        C287   1.482       .  S
C263        N264   1.356       .  A
N264        C265   1.360       .  A
C265        C537   1.487       .  S
C265        N266   1.356       .  A
C267        C324   1.487   1_655  S
C267        N268   1.366       .  A
C267        N272   1.362       .  A
N268        C269   1.362       .  A
C269        C274   1.496       .  S
C269        N270   1.353       .  A
N270        C271   1.350       .  A
C271        C527   1.468       .  S
C271        N272   1.354       .  A
C273        C274   1.415       .  A
C273        C278   1.412       .  A
C273       Br280   1.932       .  S
C274        C275   1.416       .  A
C275        C276   1.409       .  A
C275       Br282   1.938       .  S
C276        C277   1.418       .  A
C276       Br281   1.933       .  S
C277        C278   1.419       .  A
C278       Br279   1.935       .  S
C283        C284   1.413       .  A
C283        C288   1.409       .  A
C283       Br290   1.928       .  S
C284        C285   1.410       .  A
C285        C286   1.412       .  A
C285       Br292   1.925       .  S
C286        C287   1.409       .  A
C286       Br291   1.926       .  S
C287        C288   1.409       .  A
C288       Br289   1.930       .  S
C293        C294   1.412       .  A
C293        C298   1.410       .  A
C293       Br300   1.935       .  S
C294        C295   1.407       .  A
C295        C296   1.412   1_556  A
C295       Br302   1.927   1_556  S
C296        C297   1.423   1_554  A
C296       Br301   1.936   1_655  S
C297        C298   1.419       .  A
C298       Br299   1.936       .  S
C303        C304   1.411       .  A
C303        C308   1.399       .  A
C303       Br310   1.939       .  S
C304        C305   1.412       .  A
C305        C306   1.414       .  A
C305       Br312   1.926       .  S
C306        C307   1.410       .  A
C306       Br311   1.929       .  S
C307        C308   1.407       .  A
C308       Br309   1.928       .  S
C313        C314   1.413       .  A
C313        C318   1.410       .  A
C313       Br320   1.930       .  S
C314        C315   1.411       .  A
C315        C316   1.409       .  A
C315       Br322   1.929       .  S
C316        C317   1.408       .  A
C316       Br321   1.929       .  S
C317        C318   1.410       .  A
C318       Br319   1.931       .  S
C323        C324   1.410       .  A
C323        C328   1.412       .  A
C323       Br330   1.934       .  S
C324        C325   1.414       .  A
C325        C326   1.409       .  A
C325       Br332   1.935   1_455  S
C326        C327   1.416       .  A
C326       Br331   1.937       .  S
C327        C328   1.421       .  A
C328       Br329   1.933       .  S
C333        C334   1.413       .  A
C333        C338   1.414       .  A
C333       Br340   1.930       .  S
C334        C335   1.410       .  A
C335        C336   1.406       .  A
C335       Br342   1.924       .  S
C336        C337   1.414       .  A
C336       Br341   1.937       .  S
C337        C338   1.416       .  A
C338       Br339   1.930       .  S
C343        C344   1.410       .  A
C343        C348   1.405       .  A
C343       Br350   1.933       .  S
C344        C345   1.408       .  A
C345        C346   1.408       .  A
C345       Br352   1.929       .  S
C346        C347   1.409       .  A
C346       Br351   1.927       .  S
C347        C348   1.409       .  A
C348       Br349   1.926       .  S
C353        C354   1.407       .  A
C353        C358   1.408       .  A
C353       Br360   1.929       .  S
C354        C355   1.410       .  A
C355        C356   1.405       .  A
C355       Br362   1.929       .  S
C356        C357   1.413       .  A
C356       Br361   1.938       .  S
C357        C358   1.410       .  A
C358       Br359   1.921       .  S
C363        C364   1.414       .  A
C363        C368   1.406       .  A
C363       Br370   1.936       .  S
C364        C365   1.413       .  A
C365        C366   1.409       .  A
C365       Br372   1.928   1_556  S
C366        C367   1.409       .  A
C366       Br371   1.933   1_556  S
C367        C368   1.408       .  A
C368       Br369   1.931       .  S
C373        C374   1.412       .  A
C373        C378   1.414       .  A
C373       Br380   1.924       .  S
C374        C375   1.409       .  A
C375        C376   1.403       .  A
C375       Br382   1.930       .  S
C376        C377   1.411       .  A
C376       Br381   1.933       .  S
C377        C378   1.415       .  A
C378       Br379   1.933   1_556  S
C383        C384   1.409       .  A
C383        C388   1.406   1_556  A
C383       Br390   1.936   1_556  S
C384        C385   1.413       .  A
C385        C386   1.409       .  A
C385       Br392   1.932       .  S
C386        C387   1.418       .  A
C386       Br391   1.935   1_455  S
C387        C388   1.419   1_556  A
C388       Br389   1.936       .  S
C393        C394   1.411       .  A
C393        C398   1.407       .  A
C393       Br400   1.934       .  S
C394        C395   1.410       .  A
C395        C396   1.405       .  A
C395       Br402   1.932       .  S
C396        C397   1.409       .  A
C396       Br401   1.930       .  S
C397        C398   1.413       .  A
C398       Br399   1.934       .  S
C403        C404   1.408       .  A
C403        C408   1.405       .  A
C403       Br410   1.936       .  S
C404        C405   1.412       .  A
C405        C406   1.410       .  A
C405       Br412   1.931       .  S
C406        C407   1.417       .  A
C406       Br411   1.934       .  S
C407        C408   1.423       .  A
C408       Br409   1.941       .  S
C413        C414   1.409       .  A
C413        C418   1.407       .  A
C413       Br420   1.931       .  S
C414        C415   1.409       .  A
C415        C416   1.409       .  A
C415       Br422   1.935       .  S
C416        C417   1.422       .  A
C416       Br421   1.936       .  S
C417        C418   1.421       .  A
C418       Br419   1.932       .  S
C423        C424   1.415       .  A
C423        C428   1.404       .  A
C423       Br430   1.929       .  S
C424        C425   1.413       .  A
C425        C426   1.402       .  A
C425       Br432   1.933       .  S
C426        C427   1.406       .  A
C426       Br431   1.933       .  S
C427        C428   1.405       .  A
C428       Br429   1.928   1_655  S
C433        C434   1.414       .  A
C433        C438   1.415       .  A
C433       Br440   1.928       .  S
C434        C435   1.409       .  A
C435        C436   1.400       .  A
C435       Br442   1.937       .  S
C436        C437   1.416       .  A
C436       Br441   1.932       .  S
C437        C438   1.416       .  A
C438       Br439   1.930       .  S
C443        C444   1.403       .  A
C443        C448   1.407       .  A
C443       Br450   1.937       .  S
C444        C445   1.405       .  A
C445        C446   1.408       .  A
C445       Br452   1.932       .  S
C446        C447   1.422       .  A
C446       Br451   1.933       .  S
C447        C448   1.426       .  A
C448       Br449   1.933       .  S
C453        C454   1.412       .  A
C453        C458   1.410       .  A
C453       Br460   1.928       .  S
C454        C455   1.417       .  A
C455        C456   1.406       .  A
C455       Br462   1.926       .  S
C456        C457   1.406       .  A
C456       Br461   1.934       .  S
C457        C458   1.406       .  A
C458       Br459   1.927       .  S
C463        C464   1.411       .  A
C463        C468   1.400       .  A
C463       Br470   1.927       .  S
C464        C465   1.412       .  A
C465        C466   1.413       .  A
C465       Br472   1.931       .  S
C466        C467   1.418       .  A
C466       Br471   1.931       .  S
C467        C468   1.413       .  A
C468       Br469   1.937   1_556  S
C473        C474   1.409       .  A
C473        C478   1.411       .  A
C473       Br480   1.928       .  S
C474        C475   1.410       .  A
C475        C476   1.403       .  A
C475       Br482   1.928       .  S
C476        C477   1.410       .  A
C476       Br481   1.937       .  S
C477        C478   1.412       .  A
C478       Br479   1.925       .  S
C483        C484   1.411       .  A
C483        C488   1.404       .  A
C483       Br490   1.927       .  S
C484        C485   1.412       .  A
C485        C486   1.405       .  A
C485       Br492   1.931       .  S
C486        C487   1.407       .  A
C486       Br491   1.927       .  S
C487        C488   1.405       .  A
C488       Br489   1.929       .  S
C493        C494   1.413       .  A
C493        C498   1.409       .  A
C493       Br500   1.935   1_556  S
C494        C495   1.414       .  A
C495        C496   1.416       .  A
C495       Br502   1.924       .  S
C496        C497   1.416       .  A
C496       Br501   1.932       .  S
C497        C498   1.414       .  A
C498       Br499   1.929       .  S
C503        C504   1.414       .  A
C503        C508   1.408       .  A
C503       Br510   1.931       .  S
C504        C505   1.419       .  A
C505        C506   1.413       .  A
C505       Br512   1.930   1_556  S
C506        C507   1.408       .  A
C506       Br511   1.931   1_556  S
C507        C508   1.408       .  A
C508       Br509   1.929   1_545  S
C513        C514   1.423       .  A
C513        C518   1.414       .  A
C513       Br520   1.937       .  S
C514        C515   1.425       .  A
C515        C516   1.410       .  A
C515       Br522   1.937       .  S
C516        C517   1.409       .  A
C516       Br521   1.930   1_556  S
C517        C518   1.415       .  A
C518       Br519   1.928       .  S
C523        C524   1.414       .  A
C523        C528   1.400       .  A
C523       Br530   1.918       .  S
C524        C525   1.412       .  A
C525        C526   1.413       .  A
C525       Br532   1.924       .  S
C526        C527   1.407       .  A
C526       Br531   1.926       .  S
C527        C528   1.403       .  A
C528       Br529   1.939       .  S
C533        C534   1.416       .  A
C533        C538   1.416       .  A
C533       Br540   1.930       .  S
C534        C535   1.419       .  A
C535        C536   1.402       .  A
C535       Br542   1.929       .  S
C536        C537   1.406       .  A
C536       Br541   1.933       .  S
C537        C538   1.415       .  A
C538       Br539   1.930       .  S
C543        C544   1.418       .  A
C543        C548   1.413       .  A
C543       Br550   1.928       .  S
C544        C545   1.429       .  A
C545        C546   1.407       .  A
C545       Br552   1.941       .  S
C546        C547   1.407       .  A
C546       Br551   1.936       .  S
C547        C548   1.408       .  A
C548       Br549   1.925       .  S
C553        C554   1.410       .  A
C553        C558   1.406       .  A
C553       Br560   1.940       .  S
C554        C555   1.412       .  A
C555        C556   1.415       .  A
C555       Br562   1.924       .  S
C556        C557   1.415       .  A
C556       Br561   1.926       .  S
C557        C558   1.422       .  A
C558       Br559   1.934       .  S
C563        C564   1.420       .  A
C563        C568   1.408       .  A
C563       Br570   1.930       .  S
C564        C565   1.417       .  A
C565        C566   1.409       .  A
C565       Br572   1.932       .  S
C566        C567   1.406       .  A
C566       Br571   1.931   1_565  S
C567        C568   1.405       .  A
C568       Br569   1.931       .  S
C573        C574   1.412       .  A
C573        C578   1.404       .  A
C573       Br580   1.922       .  S
C574        C575   1.413       .  A
C575        C576   1.413       .  A
C575       Br582   1.930       .  S
C576        C577   1.409       .  A
C576       Br581   1.927       .  S
C577        C578   1.405       .  A
C578       Br579   1.934       .  S
C583        C584   1.414       .  A
C583        C588   1.405       .  A
C583       Br590   1.935       .  S
C584        C585   1.417       .  A
C585        C586   1.411       .  A
C585       Br592   1.932       .  S
C586        C587   1.408       .  A
C586       Br591   1.930       .  S
C587        C588   1.410       .  A
C588       Br589   1.933       .  S
C593        C594   1.411       .  A
C593        C598   1.403       .  A
C593       Br600   1.933       .  S
C594        C595   1.418       .  A
C595        C596   1.409       .  A
C595       Br602   1.933       .  S
C596        C597   1.406       .  A
C596       Br601   1.932       .  S
C597        C598   1.406       .  A
C598       Br599   1.922       .  S
C603        C604   1.419       .  A
C603        C608   1.409       .  A
C603       Br610   1.935       .  S
C604        C605   1.422       .  A
C605        C606   1.413       .  A
C605       Br612   1.933       .  S
C606        C607   1.415       .  A
C606       Br611   1.935       .  S
C607        C608   1.416       .  A
C608       Br609   1.938   1_556  S
C613        C614   1.409       .  A
C613        C618   1.412       .  A
C613       Br620   1.927       .  S
C614        C615   1.407       .  A
C615        C616   1.401       .  A
C615       Br622   1.919       .  S
C616        C617   1.405       .  A
C616       Br621   1.931       .  S
C617        C618   1.410       .  A
C618       Br619   1.925       .  S
C623        C624   1.418       .  A
C623        C628   1.406       .  A
C623       Br630   1.932       .  S
C624        C625   1.416       .  A
C625        C626   1.412       .  A
C625       Br632   1.934       .  S
C626        C627   1.416       .  A
C626       Br631   1.933       .  S
C627        C628   1.414       .  A
C628       Br629   1.939       .  S
C633        C634   1.415       .  A
C633        C638   1.402       .  A
C633       Br640   1.929       .  S
C634        C635   1.414       .  A
C635        C636   1.415       .  A
C635       Br642   1.929       .  S
C636        C637   1.409       .  A
C636       Br641   1.927       .  S
C637        C638   1.407       .  A
C638       Br639   1.936       .  S
C643        C644   1.428       .  A
C643        C648   1.415       .  A
C643       Br650   1.938   1_556  S
C644        C645   1.428       .  A
C645        C646   1.414       .  A
C645       Br652   1.937       .  S
C646        C647   1.406       .  A
C646       Br651   1.930       .  S
C647        C648   1.407       .  A
C648       Br649   1.930   1_556  S
C653        C654   1.408       .  A
C653        C658   1.402       .  A
C653       Br660   1.935       .  S
C654        C655   1.414       .  A
C655        C656   1.413       .  A
C655       Br662   1.926   1_556  S
C656        C657   1.408       .  A
C656       Br661   1.928   1_556  S
C657        C658   1.411       .  A
C658       Br659   1.927       .  S
C663        C664   1.413       .  A
C663        C668   1.412       .  A
C663       Br670   1.928       .  S
C664        C665   1.414       .  A
C665        C666   1.403       .  A
C665       Br672   1.918       .  S
C666        C667   1.401       .  A
C666       Br671   1.933       .  S
C667        C668   1.408       .  A
C668       Br669   1.928       .  S
C673        C674   1.418       .  A
C673        C678   1.405       .  A
C673       Br680   1.937       .  S
C674        C675   1.421       .  A
C675        C676   1.413       .  A
C675       Br682   1.932   1_566  S
C676        C677   1.407       .  A
C676       Br681   1.932       .  S
C677        C678   1.408       .  A
C678       Br679   1.935       .  S
C683        C684   1.419       .  A
C683        C688   1.411       .  A
C683       Br690   1.933       .  S
C684        C685   1.414       .  A
C685        C686   1.403       .  A
C685       Br692   1.934   1_556  S
C686        C687   1.404       .  A
C686       Br691   1.925       .  S
C687        C688   1.409       .  A
C688       Br689   1.932       .  S
C693        C694   1.409       .  A
C693        C698   1.406       .  A
C693       Br700   1.932       .  S
C694        C695   1.406       .  A
C695        C696   1.405       .  A
C695       Br702   1.928       .  S
C696        C697   1.406       .  A
C696       Br701   1.926       .  S
C697        C698   1.408       .  A
C698       Br699   1.927       .  S
C703        C704   1.426       .  A
C703        C708   1.414       .  A
C703       Br710   1.933       .  S
C704        C705   1.426       .  A
C705        C706   1.406       .  A
C705       Br712   1.938       .  S
C706        C707   1.409       .  A
C706       Br711   1.937       .  S
C707        C708   1.407       .  A
C708       Br709   1.928       .  S
C713        C714   1.414       .  A
C713        C718   1.400       .  A
C713       Br720   1.927       .  S
C714        C715   1.416       .  A
C715        C716   1.415       .  A
C715       Br722   1.930       .  S
C716        C717   1.408       .  A
C716       Br721   1.926       .  S
C717        C718   1.404       .  A
C718       Br719   1.932       .  S
C723        C724   1.416       .  A
C723        C728   1.413       .  A
C723       Br730   1.928       .  S
C724        C725   1.415       .  A
C725        C726   1.403       .  A
C725       Br732   1.935       .  S
C726        C727   1.413       .  A
C726       Br731   1.933       .  S
C727        C728   1.416       .  A
C728       Br729   1.933       .  S
C733        C734   1.415       .  A
C733        C738   1.404       .  A
C733       Br740   1.923       .  S
C734        C735   1.414       .  A
C735        C736   1.405       .  A
C735       Br742   1.933       .  S
C736        C737   1.408       .  A
C736       Br741   1.934       .  S
C737        C738   1.402       .  A
C738       Br739   1.933       .  S
C743        C744   1.420       .  A
C743        C748   1.411       .  A
C743       Br750   1.937       .  S
C744        C745   1.420       .  A
C745        C746   1.410       .  A
C745       Br752   1.937       .  S
C746        C747   1.414       .  A
C746       Br751   1.936   1_545  S
C747        C748   1.415       .  A
C748       Br749   1.936       .  S
