geometry optimzed in LAMMPS
_audit_creation_date              2020-12-01 
_audit_creation_method            'lammps2cif' 
_symmetry_space_group_name_H-M    'P1' 
_symmetry_Int_Tables_number       1 
_symmetry_cell_setting            triclinic 
loop_ 
_symmetry_equiv_pos_as_xyz 
  x,y,z 
_cell_length_a                    24.88174437 
_cell_length_b                    24.868611873270137 
_cell_length_c                    34.16146139663487 
_cell_angle_alpha                 89.86422835676136 
_cell_angle_beta                  89.79899389476508 
_cell_angle_gamma                 89.98388804334841 
loop_ 
_atom_site_label 
_atom_site_type_symbol 
_atom_site_fract_x 
_atom_site_fract_y 
_atom_site_fract_z 
_atom_site_charge 
O1          O  0.94528560  0.11412643  0.09977047    -0.77600
C2          C  0.10377981  0.09721970  0.08981868     0.83400
O3          O  0.00980870  0.95174591  0.04116253    -0.78700
O4          O  0.11378531  0.94846378  0.16079914    -0.80200
O5          O  0.95386183  0.01336543  0.21458004    -0.80000
O6          O  0.88068270  0.06586421  0.12759122    -0.78600
Zn7        Zn  0.99338507  0.05400205  0.08795536     1.55700
O8          O  0.04408405  0.01738650  0.21322010    -0.80000
Cd9        Cd  0.93117276  0.00915195  0.15691371     1.59700
Cd10       Cd  0.00126249  0.92838437  0.10253709     1.59600
O11         O  0.89058291  0.93884592  0.16330552    -0.80000
O12         O  0.99873621  0.00001293  0.12724957    -1.90500
Cd13       Cd  0.06617820  0.01582568  0.15494092     1.59900
O14         O  0.93442459  0.88191617  0.12429166    -0.80000
O15         O  0.10806502  0.08001711  0.12535037    -0.78600
C16         C  0.98564783  0.99228260  0.02534912     0.83900
C17         C  0.89588914  0.10562706  0.10634034     0.83600
O18         O  0.06433253  0.08352337  0.06855872    -0.77600
C19         C  0.99958753  0.00984180  0.23120860     0.84400
O20         O  0.95530273  0.02146572  0.04551424    -0.77700
C21         C  0.89805531  0.89182963  0.15023844     0.84500
C22         C  0.10486246  0.89976971  0.15161305     0.84800
O23         O  0.06652520  0.88680691  0.12844947    -0.80100
O24         O  0.93980024  0.12170676  0.33896101    -0.77600
C25         C  0.11727040  0.10804708  0.35959309     0.83400
O26         O  0.00063386  0.95697666  0.29078691    -0.78700
O27         O  0.11146450  0.94937129  0.41385531    -0.80200
O28         O  0.95180433  0.02751206  0.46604308    -0.80000
O29         O  0.88232197  0.07749282  0.37712285    -0.78600
Zn30       Zn  0.00414785  0.07318737  0.34272343     1.55700
O31         O  0.03946845  0.00720933  0.46881586    -0.80000
Cd32       Cd  0.93322117  0.02175445  0.40719678     1.59700
Cd33       Cd  0.00135846  0.93949861  0.35278829     1.59600
O34         O  0.89144830  0.95103856  0.41377596    -0.80000
O35         O  0.00198478  0.01211486  0.37812023    -1.90500
Cd36       Cd  0.06731565  0.01817721  0.41193599     1.59900
O37         O  0.93522010  0.89414886  0.37491006    -0.80000
O38         O  0.12132081  0.07956749  0.39095075    -0.78600
C39         C  0.00086723  0.00319662  0.27345374     0.83900
C40         C  0.89210621  0.11320560  0.35076364     0.83600
O41         O  0.07412897  0.10949383  0.34016405    -0.77600
C42         C  0.99275955  0.00890902  0.48427523     0.84400
O43         O  0.00217469  0.04671373  0.29167087    -0.77700
C44         C  0.89867850  0.90400746  0.40053511     0.84500
C45         C  0.10351161  0.90257758  0.40059479     0.84800
O46         O  0.06650584  0.89300862  0.37539998    -0.80100
O47         O  0.13813388  0.31476718  0.09439398    -0.77600
C48         C  0.14116237  0.13916815  0.07479463     0.83400
O49         O  0.30144006  0.25044271  0.14236977    -0.78700
O50         O  0.30167808  0.13673388  0.02337273    -0.80200
O51         O  0.24068842  0.29756292  0.46677650    -0.80000
O52         O  0.17535934  0.36956328  0.05051981    -0.78600
Zn53       Zn  0.18426728  0.24976926  0.09185841     1.55700
O54         O  0.24884940  0.20770390  0.46559789    -0.80000
Cd55       Cd  0.23658447  0.31961767  0.02530073     1.59700
Cd56       Cd  0.31810147  0.25227074  0.07981584     1.59600
O57         O  0.30525101  0.36643521  0.02406881    -0.80000
O58         O  0.24443398  0.25124319  0.05560496    -1.90500
Cd59       Cd  0.23502577  0.18410169  0.02324681     1.59900
O60         O  0.36546841  0.31888015  0.05733904    -0.80000
O61         O  0.16993041  0.13321984  0.04370531    -0.78600
C62         C  0.25569569  0.24902850  0.16046680     0.83900
C63         C  0.14192192  0.36074944  0.07862683     0.83600
O64         O  0.14278042  0.18233482  0.09419255    -0.77600
C65         C  0.25372367  0.25379208  0.44941778     0.84400
O66         O  0.21166656  0.24917194  0.14285170    -0.77700
C67         C  0.35332317  0.35899372  0.03524700     0.84500
C68         C  0.34929649  0.14556396  0.03464826     0.84800
O69         O  0.36094979  0.18509974  0.05721714    -0.80100
O70         O  0.14440240  0.29352384  0.33934772    -0.77600
C71         C  0.16162929  0.14193820  0.34452407     0.83400
O72         O  0.30956319  0.23025263  0.39274810    -0.78700
O73         O  0.30562836  0.12431188  0.27546099    -0.80200
O74         O  0.24591438  0.29213275  0.22106370    -0.80000
O75         O  0.18777359  0.35868685  0.30825226    -0.78600
Zn76       Zn  0.20780581  0.24773642  0.34768400     1.55700
O77         O  0.24275544  0.20193019  0.21977319    -0.80000
Cd78       Cd  0.24718285  0.31073501  0.27962732     1.59700
Cd79       Cd  0.33151288  0.23726788  0.33081009     1.59600
O80         O  0.31548062  0.35350136  0.27706982    -0.80000
O81         O  0.25915209  0.24233071  0.30706513    -1.90500
Cd82       Cd  0.24142966  0.17700003  0.27817506     1.59900
O83         O  0.37617294  0.30540918  0.31010524    -0.80000
O84         O  0.17429824  0.14054924  0.30782755    -0.78600
C85         C  0.27084774  0.25758699  0.40822802     0.83900
C86         C  0.14948960  0.34275719  0.33060057     0.83600
O87         O  0.18247487  0.17611403  0.36745349    -0.77600
C88         C  0.24994320  0.24748752  0.20297432     0.84400
O89         O  0.24336671  0.28840828  0.38735819    -0.77700
C90         C  0.36338174  0.34510040  0.28773692     0.84500
C91         C  0.35520463  0.13087246  0.28323189     0.84800
O92         O  0.37157640  0.17056091  0.30400086    -0.80100
O93         O  0.16622147  0.68799682  0.13161129    -0.77600
C94         C  0.14020424  0.85718638  0.16791470     0.83400
O95         O  0.29684295  0.73253036  0.10399599    -0.78700
O96         O  0.30256259  0.85697380  0.22337325    -0.80200
O97         O  0.23838702  0.70399347  0.27651665    -0.80000
O98         O  0.16849553  0.64436544  0.18905355    -0.78600
Zn99       Zn  0.19479697  0.75840384  0.14903563     1.55700
O100        O  0.23528745  0.79408270  0.27790154    -0.80000
Cd101      Cd  0.23398298  0.68252224  0.21776544     1.59700
Cd102      Cd  0.31817305  0.74422945  0.16531950     1.59600
O103        O  0.29932365  0.63093005  0.21924797    -0.80000
O104        O  0.24619164  0.75008889  0.18960300    -1.90500
Cd105      Cd  0.23394910  0.81601671  0.21997243     1.59900
O106        O  0.36365859  0.68247124  0.19417623    -0.80000
O107        O  0.17628372  0.86812663  0.19342795    -0.78600
C108        C  0.25878004  0.75927426  0.08738153     0.83900
C109        C  0.15208059  0.64914814  0.15343954     0.83600
O110        O  0.13458966  0.80966834  0.15530870    -0.77600
C111        C  0.24386344  0.74879062  0.29438101     0.84400
O112        O  0.23215719  0.79268926  0.10680473    -0.77700
C113        C  0.34892720  0.64117029  0.21398342     0.84500
C114        C  0.34900177  0.84954838  0.20941945     0.84800
O115        O  0.35958884  0.81329426  0.18378904    -0.80100
O116        O  0.13532506  0.68065824  0.40084569    -0.77600
C117        C  0.13795292  0.85863677  0.41578272     0.83400
O118        O  0.29732161  0.74938421  0.35410813    -0.78700
O119        O  0.30197241  0.86571514  0.47172965    -0.80200
O120        O  0.23751039  0.70715258  0.03072715    -0.80000
O121        O  0.17017099  0.62784103  0.44652092    -0.78600
Zn122      Zn  0.17837318  0.74743492  0.40495646     1.55700
O123        O  0.23312444  0.79737156  0.02747925    -0.80000
Cd124      Cd  0.22934307  0.68202710  0.47245347     1.59700
Cd125      Cd  0.31406410  0.75117352  0.41676649     1.59600
O126        O  0.29779873  0.63764017  0.47616222    -0.80000
O127        O  0.23973995  0.74939018  0.44039798    -1.90500
Cd128      Cd  0.23274367  0.81876143  0.46915947     1.59900
O129        O  0.35678384  0.68557442  0.44130780    -0.80000
O130        O  0.17222848  0.86774491  0.44304024    -0.78600
C131        C  0.25117194  0.74823056  0.33667797     0.83900
C132        C  0.13863545  0.63502206  0.41702433     0.83600
O133        O  0.13269175  0.81226596  0.40115264    -0.76000
C134        C  0.24318076  0.75377632  0.04604590     0.84400
O135        O  0.20747179  0.74770019  0.35483220    -0.77700
C136        C  0.34551157  0.64728682  0.46523226     0.84500
C137        C  0.35043971  0.85743375  0.46148171     0.84800
O138        O  0.36231753  0.81717548  0.43951515    -0.80100
O139        O  0.56501518  0.11329131  0.03608271    -0.77600
C140        C  0.39208778  0.10917505  0.02044381     0.83400
O141        O  0.50217464  0.94769944  0.08023891    -0.78700
O142        O  0.38361210  0.94676775  0.46648452    -0.80200
O143        O  0.54641760  0.00889588  0.41012816    -0.80000
O144        O  0.61958516  0.07903714  0.49119868    -0.78600
Zn145      Zn  0.50174712  0.06635622  0.03367893     1.55700
O146        O  0.45586613  0.01070129  0.41045486    -0.80000
Cd147      Cd  0.57098312  0.01501365  0.46769472     1.59700
Cd148      Cd  0.50173305  0.92915345  0.01781204     1.59600
O149        O  0.62043568  0.94762510  0.46638887    -0.80000
O150        O  0.50197213  0.00519328  0.99745201    -1.90500
Cd151      Cd  0.43277685  0.01414770  0.46822547     1.59900
O152        O  0.56949194  0.88442018  0.99379474    -0.80000
O153        O  0.38371811  0.07653422  0.49204871    -0.78600
C154        C  0.50259767  0.99245580  0.09990918     0.83900
C155        C  0.61031285  0.11194225  0.01945414     0.83600
O156        O  0.43711112  0.11127518  0.03719692    -0.77600
C157        C  0.50092076  0.00170347  0.39355397     0.84400
O158        O  0.50275142  0.03785000  0.08400179    -0.77700
C159        C  0.61152131  0.89837128  0.47418621     0.84500
C160        C  0.39205956  0.89760019  0.47461651     0.84800
O161        O  0.43384159  0.88374287  0.99437850    -0.80100
O162        O  0.56224681  0.87641715  0.20939170    -0.77600
C163        C  0.39181344  0.88361409  0.22443588     0.83400
O164        O  0.50093054  0.03852926  0.16200311    -0.78700
O165        O  0.38530712  0.04143026  0.27961439    -0.80200
O166        O  0.54486882  0.97050456  0.33653199    -0.80000
O167        O  0.61755915  0.91498484  0.25174366    -0.78600
Zn168      Zn  0.50068037  0.92357989  0.21057421     1.55700
O169        O  0.45498223  0.97788017  0.33594465    -0.80000
Cd170      Cd  0.56690275  0.97312682  0.27850292     1.59700
Cd171      Cd  0.49975699  0.05616785  0.22399818     1.59600
O172        O  0.60998827  0.04283533  0.28491928    -0.80000
O173        O  0.50008419  0.98296481  0.24742856    -1.90500
Cd174      Cd  0.43282206  0.97431233  0.27816497     1.59900
O175        O  0.56486620  0.10082263  0.24772702    -0.80000
O176        O  0.38384580  0.91417551  0.25403831    -0.78600
C177        C  0.50238405  0.99373185  0.14265573     0.83900
C178        C  0.60816913  0.88110045  0.22429932     0.83600
O179        O  0.43640665  0.88148758  0.20715592    -0.77600
C180        C  0.50023928  0.98195135  0.35314274     0.84400
O181        O  0.50320028  0.94881763  0.15909998    -0.77700
C182        C  0.60166543  0.09035509  0.27288974     0.84500
C183        C  0.39363803  0.08955204  0.26899066     0.84800
O184        O  0.43354813  0.10194226  0.24684150    -0.80100
O185        O  0.86664274  0.80169415  0.15216004    -0.77600
C186        C  0.84866291  0.64442127  0.15345835     0.83400
O187        O  0.70195676  0.72854549  0.10286015    -0.78700
O188        O  0.70054544  0.62529260  0.21939118    -0.80200
O189        O  0.76364721  0.78971649  0.27607893    -0.80000
O190        O  0.82642966  0.85979158  0.19165094    -0.78600
Zn191      Zn  0.80477940  0.75181396  0.14761800     1.55700
O192        O  0.76308551  0.69957112  0.27606094    -0.80000
Cd193      Cd  0.76571019  0.81094515  0.21806989     1.59700
Cd194      Cd  0.68104624  0.73922035  0.16466780     1.59600
O195        O  0.69796777  0.85455170  0.22107188    -0.80000
O196        O  0.75316783  0.74451000  0.18858428    -1.90500
Cd197      Cd  0.76597281  0.67737844  0.21742021     1.59900
O198        O  0.63928626  0.80809909  0.18492877    -0.80000
O199        O  0.83306266  0.64083781  0.18940055    -0.78600
C200        C  0.74045879  0.75498953  0.08632825     0.83900
C201        C  0.86230120  0.84880867  0.16572261     0.83600
O202        O  0.83182821  0.68086628  0.13056289    -0.77600
C203        C  0.75689257  0.74471437  0.29335871     0.84400
O204        O  0.76780578  0.78723973  0.10602241    -0.77700
C205        C  0.65076678  0.84610831  0.20899450     0.84500
C206        C  0.65104635  0.63512279  0.21319314     0.84800
O207        O  0.63670863  0.67610931  0.19291052    -0.80100
O208        O  0.86694801  0.81454217  0.39911655    -0.77600
C209        C  0.86460395  0.63623521  0.41627105     0.83400
O210        O  0.70443722  0.74830423  0.35353725    -0.78700
O211        O  0.70239403  0.63586241  0.47372009    -0.80200
O212        O  0.76654631  0.79457435  0.02689022    -0.80000
O213        O  0.83125284  0.86786741  0.44432702    -0.78600
Zn214      Zn  0.82350996  0.74781020  0.40361687     1.55700
O215        O  0.76184946  0.70432269  0.02892546    -0.80000
Cd216      Cd  0.76965444  0.81788493  0.46890204     1.59700
Cd217      Cd  0.68758614  0.75099895  0.41606608     1.59600
O218        O  0.70119484  0.86567571  0.47116856    -0.80000
O219        O  0.76193407  0.74912765  0.43924800    -1.90500
Cd220      Cd  0.77077184  0.68082771  0.47043255     1.59900
O221        O  0.64050589  0.81780032  0.43897663    -0.80000
O222        O  0.83091145  0.62810318  0.44447160    -0.78600
C223        C  0.75036835  0.74534666  0.33571913     0.83900
C224        C  0.86382698  0.85997093  0.41561420     0.83600
O225        O  0.86934845  0.68241675  0.40102537    -0.77600
C226        C  0.75605079  0.75053730  0.04484559     0.84400
O227        O  0.79433346  0.74471190  0.35341862    -0.77700
C228        C  0.65277601  0.85795116  0.46088268     0.84500
C229        C  0.65466685  0.64623085  0.46343830     0.84800
O230        O  0.64370331  0.68540699  0.44023879    -0.80100
O231        O  0.86002188  0.19171534  0.10368659    -0.77600
C232        C  0.86134142  0.36290072  0.08153527     0.83400
O233        O  0.69686956  0.25242063  0.14410209    -0.78700
O234        O  0.69706437  0.36935366  0.02592730    -0.80200
O235        O  0.77434236  0.20270738  0.47433714    -0.80000
O236        O  0.82566485  0.13304646  0.06202145    -0.78600
Zn237      Zn  0.81581308  0.25585634  0.09804546     1.55700
O238        O  0.76241653  0.29239839  0.47341431    -0.80000
Cd239      Cd  0.76925473  0.18418957  0.03275675     1.59700
Cd240      Cd  0.68169532  0.25478864  0.08171387     1.59600
O241        O  0.70080681  0.14005389  0.02489136    -0.80000
O242        O  0.75698645  0.25436838  0.06082909    -1.90500
Cd243      Cd  0.76585430  0.32146667  0.02960833     1.59900
O244        O  0.63974497  0.18751248  0.05767533    -0.80000
O245        O  0.82911321  0.37080347  0.05269611    -0.78600
C246        C  0.74127088  0.25388995  0.16384444     0.83900
C247        C  0.85755118  0.14473133  0.09016114     0.83600
O248        O  0.86239751  0.31861652  0.09947688    -0.77600
C249        C  0.76033277  0.24619706  0.45716404     0.84400
O250        O  0.78652627  0.25730101  0.14799810    -0.77700
C251        C  0.65245888  0.14865156  0.03467383     0.84500
C252        C  0.64833752  0.36168117  0.03600847     0.84800
O253        O  0.63555408  0.32164382  0.05808629    -0.80100
O254        O  0.62887097  0.18108029  0.27458237    -0.77600
C255        C  0.63650610  0.35717186  0.29411536     0.83400
O256        O  0.78792956  0.25086744  0.22516269    -0.78700
O257        O  0.79605649  0.35666494  0.34749040    -0.80200
O258        O  0.73285239  0.19845937  0.40037850    -0.80000
O259        O  0.67050691  0.12537180  0.31558818    -0.78600
Zn260      Zn  0.67469013  0.24612084  0.27583131     1.55700
O261        O  0.73020682  0.28858818  0.40031805    -0.80000
Cd262      Cd  0.72913802  0.17704028  0.34174979     1.59700
Cd263      Cd  0.80773132  0.24735160  0.28625246     1.59600
O264        O  0.79997998  0.13526344  0.34536032    -0.80000
O265        O  0.73558031  0.24519752  0.31132346    -1.90500
Cd266      Cd  0.72768567  0.31150135  0.34363343     1.59900
O267        O  0.85655621  0.18335373  0.30885820    -0.80000
O268        O  0.66658148  0.36274583  0.32406112    -0.78600
C269        C  0.74275608  0.25059011  0.20644475     0.83900
C270        C  0.63545008  0.13441399  0.28874900     0.83600
O271        O  0.63482263  0.31387456  0.27492816    -0.77600
C272        C  0.73999086  0.24389542  0.41703424     0.84400
O273        O  0.69818291  0.24728529  0.22338405    -0.77700
C274        C  0.84732635  0.14558444  0.33374447     0.84500
C275        C  0.84265030  0.34997214  0.33334896     0.84800
O276        O  0.85224075  0.31359884  0.30773844    -0.80100
O277        O  0.43608638  0.62169119  0.46868650    -0.77600
C278        C  0.61083075  0.61228153  0.47935275     0.83400
O279        O  0.49390608  0.46195923  0.41646335    -0.78700
O280        O  0.61257388  0.44994884  0.03673144    -0.80200
O281        O  0.45167219  0.52011156  0.09018564    -0.80000
O282        O  0.37914861  0.57632852  0.00635347    -0.78600
Zn283      Zn  0.49936311  0.57479939  0.46838511     1.55700
O284        O  0.54218960  0.52111286  0.09080739    -0.80000
Cd285      Cd  0.43047002  0.51797391  0.03216063     1.59700
Cd286      Cd  0.49996680  0.43743637  0.47797459     1.59600
O287        O  0.38592874  0.44814220  0.03497156    -0.80000
O288        O  0.49952623  0.51083715  0.50245259    -1.90500
Cd289      Cd  0.56715031  0.51946881  0.03311365     1.59900
O290        O  0.43384952  0.38928442  0.50064969    -0.80000
O291        O  0.61907687  0.57840566  0.00714773    -0.78600
C292        C  0.49244834  0.50820997  0.39852253     0.83900
C293        C  0.38898575  0.61331547  0.48112429     0.83600
O294        O  0.56485827  0.61782415  0.46448735    -0.77600
C295        C  0.49664033  0.51474334  0.10771854     0.84400
O296        O  0.49512638  0.55211531  0.41621810    -0.77700
C297        C  0.39394111  0.40040746  0.02327473     0.84500
C298        C  0.60736446  0.40269424  0.02325714     0.84800
O299        O  0.56937913  0.39152775  0.49895457    -0.80100
O300        O  0.45138945  0.38129415  0.28590289    -0.77600
C301        C  0.60131991  0.40049594  0.28124182     0.83400
O302        O  0.50094935  0.55538486  0.33629788    -0.78700
O303        O  0.61835892  0.54682232  0.22419436    -0.80200
O304        O  0.45098022  0.49115102  0.16612585    -0.80000
O305        O  0.38901180  0.42144564  0.24978421    -0.78600
Zn306      Zn  0.49803444  0.44496793  0.29236813     1.55700
O307        O  0.54107971  0.49155718  0.16599116    -0.80000
Cd308      Cd  0.42989700  0.48748508  0.22457429     1.59700
Cd309      Cd  0.49887741  0.57447225  0.27341524     1.59600
O310        O  0.37906802  0.55253078  0.22481688    -0.80000
O311        O  0.49688503  0.50029495  0.25329847    -1.90500
Cd312      Cd  0.56306574  0.48493772  0.22350709     1.59900
O313        O  0.43162976  0.61763219  0.24793983    -0.80000
O314        O  0.59890999  0.41386392  0.24500580    -0.78600
C315        C  0.48748484  0.51239734  0.35584045     0.83900
C316        C  0.40363463  0.38411276  0.27347814     0.83600
O317        O  0.57072339  0.42146756  0.30640519    -0.77600
C318        C  0.49609078  0.49842135  0.14893420     0.84400
O319        O  0.47021324  0.47096190  0.33942841    -0.77700
C320        C  0.38902969  0.60213450  0.22986089     0.84500
C321        C  0.61006246  0.59683406  0.22912576     0.84800
O322        O  0.56778124  0.61382839  0.24707090    -0.80100
O323        O  0.06692480  0.61186034  0.15693845    -0.77600
C324        C  0.89122286  0.60918241  0.13893103     0.83400
O325        O  0.00342644  0.45341818  0.20440813    -0.78700
O326        O  0.88965660  0.45308930  0.08396611    -0.80200
O327        O  0.04765233  0.51453020  0.02911746    -0.80000
O328        O  0.11914684  0.58301962  0.10827773    -0.78600
Zn329      Zn  0.00186630  0.56802154  0.15618107     1.55700
O330        O  0.95767441  0.51299084  0.02984698    -0.80000
Cd331      Cd  0.06978816  0.52034648  0.08653198     1.59700
Cd332      Cd  0.00301163  0.43779763  0.14211916     1.59600
O333        O  0.11569807  0.45212212  0.08268933    -0.80000
O334        O  0.00290220  0.51067923  0.11856056    -1.90500
Cd335      Cd  0.93603900  0.52004511  0.08695497     1.59900
O336        O  0.06866535  0.39331124  0.11814542    -0.80000
O337        O  0.88544286  0.58162465  0.10766317    -0.78600
C338        C  0.00362155  0.49770910  0.22429209     0.83900
C339        C  0.11100758  0.61248207  0.13847276     0.83600
O340        O  0.93431136  0.60828490  0.15837875    -0.77600
C341        C  0.00263702  0.50348857  0.01336887     0.84400
O342        O  0.00354015  0.54292097  0.20817541    -0.77700
C343        C  0.10688856  0.40434386  0.09404680     0.84500
C344        C  0.89784585  0.40555146  0.09566194     0.84800
O345        O  0.93631337  0.39413586  0.11929081    -0.80100
O346        O  0.06196328  0.37630518  0.33204278    -0.77600
C347        C  0.88679598  0.38450903  0.34777035     0.83400
O348        O  0.00319861  0.54219711  0.28730472    -0.78700
O349        O  0.88987564  0.54402839  0.41083456    -0.80200
O350        O  0.04715368  0.46926593  0.45784931    -0.80000
O351        O  0.12016797  0.41476617  0.37253410    -0.78600
Zn352      Zn  0.99881842  0.42371066  0.33385273     1.55700
O353        O  0.95675848  0.47040318  0.45862124    -0.80000
Cd354      Cd  0.06987378  0.47304992  0.40043781     1.59700
Cd355      Cd  0.00196388  0.55760475  0.34992331     1.59600
O356        O  0.11403357  0.54242341  0.41026613    -0.80000
O357        O  0.00079265  0.48297321  0.37117431    -1.90500
Cd358      Cd  0.93269989  0.47394153  0.40191346     1.59900
O359        O  0.06775859  0.60170123  0.37525599    -0.80000
O360        O  0.87973595  0.41632349  0.37686503    -0.78600
C361        C  0.00303410  0.49795377  0.26718615     0.83900
C362        C  0.10887169  0.38045307  0.34576648     0.83600
O363        O  0.93180830  0.38131707  0.33064390    -0.77600
C364        C  0.00222876  0.47941629  0.47443967     0.84400
O365        O  0.00163664  0.45237088  0.28288684    -0.77700
C366        C  0.10504742  0.59066251  0.40004519     0.84500
C367        C  0.89868537  0.59193704  0.39974644     0.84800
O368        O  0.93596865  0.60250028  0.37462985    -0.80100
O369        O  0.94528568  0.11412650  0.59977054    -0.77600
C370        C  0.10377993  0.09721974  0.58981875     0.83400
O371        O  0.00980863  0.95174594  0.54116248    -0.78700
O372        O  0.11378524  0.94846373  0.66079926    -0.80200
O373        O  0.95386172  0.01336549  0.71458012    -0.80000
O374        O  0.88068266  0.06586419  0.62759108    -0.78600
Zn375      Zn  0.99338527  0.05400211  0.58795545     1.55700
O376        O  0.04408398  0.01738655  0.71322015    -0.80000
Cd377      Cd  0.93117265  0.00915199  0.65691376     1.59700
Cd378      Cd  0.00126241  0.92838440  0.60253694     1.59600
O379        O  0.89058283  0.93884586  0.66330557    -0.80000
O380        O  0.99873625  0.00001296  0.62724963    -1.90500
Cd381      Cd  0.06617840  0.01582573  0.65494098     1.59900
O382        O  0.93442456  0.88191616  0.62429167    -0.80000
O383        O  0.10806526  0.08001712  0.62535041    -0.78600
C384        C  0.98564785  0.99228274  0.52534915     0.83900
C385        C  0.89588918  0.10562713  0.60634033     0.83600
O386        O  0.06433259  0.08352344  0.56855883    -0.77600
C387        C  0.99958747  0.00984184  0.73120865     0.84400
O388        O  0.95530289  0.02146587  0.54551434    -0.77700
C389        C  0.89805530  0.89182957  0.65023850     0.84500
C390        C  0.10486245  0.89976965  0.65161300     0.84800
O391        O  0.06652536  0.88680694  0.62844927    -0.80100
O392        O  0.93980024  0.12170686  0.83896100    -0.77600
C393        C  0.11727030  0.10804717  0.85959315     0.83400
O394        O  0.00063404  0.95697671  0.79078697    -0.78700
O395        O  0.11146466  0.94937132  0.91385534    -0.80200
O396        O  0.95180440  0.02751208  0.96604306    -0.80000
O397        O  0.88232214  0.07749282  0.87712294    -0.78600
Zn398      Zn  0.00414779  0.07318739  0.84272329     1.55700
O399        O  0.03946849  0.00720928  0.96881586    -0.80000
Cd400      Cd  0.93322114  0.02175417  0.90719681     1.59700
Cd401      Cd  0.00135868  0.93949861  0.85278833     1.59600
O402        O  0.89144840  0.95103838  0.91377586    -0.80000
O403        O  0.00198481  0.01211480  0.87812019    -1.90500
Cd404      Cd  0.06731583  0.01817723  0.91193604     1.59900
O405        O  0.93522037  0.89414860  0.87491012    -0.80000
O406        O  0.12132077  0.07956758  0.89095081    -0.78600
C407        C  0.00086729  0.00319666  0.77345377     0.83900
C408        C  0.89210628  0.11320565  0.85076371     0.83600
O409        O  0.07412887  0.10949388  0.84016410    -0.77600
C410        C  0.99275955  0.00890890  0.98427519     0.84400
O411        O  0.00217482  0.04671379  0.79167086    -0.77700
C412        C  0.89867864  0.90400732  0.90053514     0.84500
C413        C  0.10351170  0.90257761  0.90059479     0.84800
O414        O  0.06650598  0.89300871  0.87539996    -0.80100
O415        O  0.13813382  0.31476721  0.59439399    -0.77600
C416        C  0.14116236  0.13916823  0.57479466     0.83400
O417        O  0.30144007  0.25044278  0.64236979    -0.78700
O418        O  0.30167809  0.13673385  0.52337278    -0.80200
O419        O  0.24068833  0.29756278  0.96677650    -0.80000
O420        O  0.17535949  0.36956335  0.55051992    -0.78600
Zn421      Zn  0.18426717  0.24976931  0.59185848     1.55700
O422        O  0.24884928  0.20770377  0.96559794    -0.80000
Cd423      Cd  0.23658443  0.31961773  0.52530078     1.59700
Cd424      Cd  0.31810139  0.25227080  0.57981589     1.59600
O425        O  0.30525108  0.36643527  0.52406889    -0.80000
O426        O  0.24443390  0.25124325  0.55560502    -1.90500
Cd427      Cd  0.23502597  0.18410174  0.52324686     1.59900
O428        O  0.36546856  0.31888008  0.55733895    -0.80000
O429        O  0.16993042  0.13321996  0.54370535    -0.78600
C430        C  0.25569574  0.24902856  0.66046686     0.83900
C431        C  0.14192199  0.36074946  0.57862690     0.83600
O432        O  0.14278033  0.18233488  0.59419261    -0.77600
C433        C  0.25372362  0.25379194  0.94941781     0.84400
O434        O  0.21166656  0.24917199  0.64285181    -0.77700
C435        C  0.35332324  0.35899375  0.53524703     0.84500
C436        C  0.34929649  0.14556401  0.53464830     0.84800
O437        O  0.36094970  0.18509978  0.55721720    -0.80100
O438        O  0.14440242  0.29352389  0.83934776    -0.77600
C439        C  0.16162918  0.14193829  0.84452413     0.83400
O440        O  0.30956327  0.23025243  0.89274811    -0.78700
O441        O  0.30562831  0.12431194  0.77546107    -0.80200
O442        O  0.24591430  0.29213277  0.72106375    -0.80000
O443        O  0.18777358  0.35868683  0.80825225    -0.78600
Zn444      Zn  0.20780599  0.24773648  0.84768409     1.55700
O445        O  0.24275572  0.20193023  0.71977325    -0.80000
Cd446      Cd  0.24718274  0.31073477  0.77962738     1.59700
Cd447      Cd  0.33151279  0.23726792  0.83080995     1.59600
O448        O  0.31548045  0.35350144  0.77706985    -0.80000
O449        O  0.25915201  0.24233065  0.80706517    -1.90500
Cd450      Cd  0.24142957  0.17700007  0.77817513     1.59900
O451        O  0.37617287  0.30540919  0.81010507    -0.80000
O452        O  0.17429812  0.14054929  0.80782761    -0.78600
C453        C  0.27084784  0.25758679  0.90822806     0.83900
C454        C  0.14948960  0.34275723  0.83060058     0.83600
O455        O  0.18247480  0.17611410  0.86745355    -0.77600
C456        C  0.24994333  0.24748757  0.70297438     0.84400
O457        O  0.24336701  0.28840827  0.88735823    -0.77700
C458        C  0.36338166  0.34510044  0.78773686     0.84500
C459        C  0.35520460  0.13087251  0.78323196     0.84800
O460        O  0.37157638  0.17056097  0.80400089    -0.80100
O461        O  0.16622165  0.68799669  0.63161133    -0.77600
C462        C  0.14020426  0.85718641  0.66791476     0.83400
O463        O  0.29684302  0.73253050  0.60399592    -0.78700
O464        O  0.30256275  0.85697383  0.72337331    -0.80200
O465        O  0.23838693  0.70399340  0.77651670    -0.80000
O466        O  0.16849540  0.64436545  0.68905364    -0.78600
Zn467      Zn  0.19479690  0.75840361  0.64903571     1.55700
O468        O  0.23528731  0.79408262  0.77790154    -0.80000
Cd469      Cd  0.23398289  0.68252228  0.71776549     1.59700
Cd470      Cd  0.31817299  0.74422946  0.66531934     1.59600
O471        O  0.29932360  0.63093006  0.71924788    -0.80000
O472        O  0.24619171  0.75008891  0.68960303    -1.90500
Cd473      Cd  0.23394906  0.81601676  0.71997249     1.59900
O474        O  0.36365856  0.68247111  0.69417600    -0.80000
O475        O  0.17628366  0.86812666  0.69342801    -0.78600
C476        C  0.25878000  0.75927431  0.58738153     0.83900
C477        C  0.15208065  0.64914808  0.65343956     0.83600
O478        O  0.13458965  0.80966829  0.65530877    -0.77600
C479        C  0.24386334  0.74879057  0.79438103     0.84400
O480        O  0.23215709  0.79268918  0.60680481    -0.77700
C481        C  0.34892721  0.64117031  0.71398335     0.84500
C482        C  0.34900189  0.84954833  0.70941950     0.84800
O483        O  0.35958890  0.81329410  0.68378911    -0.80100
O484        O  0.13532501  0.68065835  0.90084566    -0.77600
C485        C  0.13795300  0.85863681  0.91578269     0.83400
O486        O  0.29732151  0.74938425  0.85410818    -0.78700
O487        O  0.30197226  0.86571524  0.97172952    -0.80200
O488        O  0.23751026  0.70715262  0.53072714    -0.80000
O489        O  0.17017108  0.62784107  0.94652077    -0.78600
Zn490      Zn  0.17837334  0.74743498  0.90495650     1.55700
O491        O  0.23312433  0.79737160  0.52747925    -0.80000
Cd492      Cd  0.22934327  0.68202710  0.97245350     1.59700
Cd493      Cd  0.31406401  0.75117356  0.91676656     1.59600
O494        O  0.29779880  0.63764002  0.97616220    -0.80000
O495        O  0.23973996  0.74939024  0.94039807    -1.90500
Cd496      Cd  0.23274359  0.81876146  0.96915952     1.59900
O497        O  0.35678390  0.68557447  0.94130793    -0.80000
O498        O  0.17222855  0.86774492  0.94304021    -0.78600
C499        C  0.25117186  0.74823057  0.83667800     0.83900
C500        C  0.13863551  0.63502208  0.91702422     0.83600
O501        O  0.13269185  0.81226602  0.90115257    -0.76000
C502        C  0.24318068  0.75377635  0.54604590     0.84400
O503        O  0.20747173  0.74770022  0.85483224    -0.77700
C504        C  0.34551166  0.64728682  0.96523231     0.84500
C505        C  0.35043959  0.85743377  0.96148170     0.84800
O506        O  0.36231745  0.81717545  0.93951520    -0.80100
O507        O  0.56501519  0.11329142  0.53608275    -0.77600
C508        C  0.39208782  0.10917510  0.52044384     0.83400
O509        O  0.50217453  0.94769953  0.58023889    -0.78700
O510        O  0.38361203  0.94676776  0.96648459    -0.80200
O511        O  0.54641761  0.00889595  0.91012822    -0.80000
O512        O  0.61958518  0.07903729  0.99119854    -0.78600
Zn513      Zn  0.50174728  0.06635627  0.53367901     1.55700
O514        O  0.45586613  0.01070100  0.91045490    -0.80000
Cd515      Cd  0.57098336  0.01501368  0.96769475     1.59700
Cd516      Cd  0.50173296  0.92915348  0.51781209     1.59600
O517        O  0.62043586  0.94762515  0.96638892    -0.80000
O518        O  0.50197192  0.00519328  0.49745208    -1.90500
Cd519      Cd  0.43277704  0.01414772  0.96822551     1.59900
O520        O  0.56949193  0.88442012  0.49379480    -0.80000
O521        O  0.38371811  0.07653425  0.99204862    -0.78600
C522        C  0.50259757  0.99245586  0.59990921     0.83900
C523        C  0.61031284  0.11194225  0.51945422     0.83600
O524        O  0.43711119  0.11127526  0.53719695    -0.77600
C525        C  0.50092080  0.00170342  0.89355400     0.84400
O526        O  0.50275137  0.03785008  0.58400185    -0.77700
C527        C  0.61152133  0.89837131  0.97418619     0.84500
C528        C  0.39205948  0.89760019  0.97461652     0.84800
O529        O  0.43384157  0.88374291  0.49437862    -0.80100
O530        O  0.56224693  0.87641728  0.70939154    -0.77600
C531        C  0.39181366  0.88361404  0.72443583     0.83400
O532        O  0.50093073  0.03852929  0.66200316    -0.78700
O533        O  0.38530702  0.04143030  0.77961442    -0.80200
O534        O  0.54486897  0.97050460  0.83653204    -0.80000
O535        O  0.61755905  0.91498481  0.75174372    -0.78600
Zn536      Zn  0.50068034  0.92357994  0.71057426     1.55700
O537        O  0.45498238  0.97788025  0.83594454    -0.80000
Cd538      Cd  0.56690265  0.97312686  0.77850298     1.59700
Cd539      Cd  0.49975689  0.05616788  0.72399824     1.59600
O540        O  0.60998822  0.04283528  0.78491939    -0.80000
O541        O  0.50008411  0.98296487  0.74742858    -1.90500
Cd542      Cd  0.43282198  0.97431241  0.77816481     1.59900
O543        O  0.56486611  0.10082246  0.74772709    -0.80000
O544        O  0.38384599  0.91417549  0.75403826    -0.78600
C545        C  0.50238402  0.99373188  0.64265577     0.83900
C546        C  0.60816917  0.88110049  0.72429931     0.83600
O547        O  0.43640684  0.88148756  0.70715591    -0.77600
C548        C  0.50023936  0.98195139  0.85314273     0.84400
O549        O  0.50320011  0.94881768  0.65910003    -0.77700
C550        C  0.60166536  0.09035498  0.77288983     0.84500
C551        C  0.39363795  0.08955208  0.76899074     0.84800
O552        O  0.43354805  0.10194231  0.74684156    -0.80100
O553        O  0.86664276  0.80169405  0.65216010    -0.77600
C554        C  0.84866292  0.64442134  0.65345840     0.83400
O555        O  0.70195681  0.72854561  0.60286021    -0.78700
O556        O  0.70054548  0.62529258  0.71939129    -0.80200
O557        O  0.76364708  0.78971656  0.77607889    -0.80000
O558        O  0.82642954  0.85979159  0.69165082    -0.78600
Zn559      Zn  0.80477936  0.75181399  0.64761804     1.55700
O560        O  0.76308573  0.69957118  0.77606100    -0.80000
Cd561      Cd  0.76571012  0.81094519  0.71806972     1.59700
Cd562      Cd  0.68104649  0.73922041  0.66466785     1.59600
O563        O  0.69796783  0.85455176  0.72107193    -0.80000
O564        O  0.75316796  0.74451002  0.68858422    -1.90500
Cd565      Cd  0.76597277  0.67737849  0.71742026     1.59900
O566        O  0.63928649  0.80809923  0.68492867    -0.80000
O567        O  0.83306280  0.64083790  0.68940065    -0.78600
C568        C  0.74045891  0.75498955  0.58632831     0.83900
C569        C  0.86230122  0.84880859  0.66572263     0.83600
O570        O  0.83182810  0.68086630  0.63056297    -0.77600
C571        C  0.75689262  0.74471443  0.79335872     0.84400
O572        O  0.76780596  0.78723971  0.60602244    -0.77700
C573        C  0.65076687  0.84610837  0.70899450     0.84500
C574        C  0.65104644  0.63512282  0.71319319     0.84800
O575        O  0.63670883  0.67610940  0.69291057    -0.80100
O576        O  0.86694794  0.81454216  0.89911663    -0.77600
C577        C  0.86460395  0.63623519  0.91627101     0.83400
O578        O  0.70443721  0.74830423  0.85353723    -0.78700
O579        O  0.70239405  0.63586232  0.97372017    -0.80200
O580        O  0.76654619  0.79457441  0.52689032    -0.80000
O581        O  0.83125283  0.86786749  0.94432703    -0.78600
Zn582      Zn  0.82350986  0.74781023  0.90361693     1.55700
O583        O  0.76184968  0.70432276  0.52892551    -0.80000
Cd584      Cd  0.76965433  0.81788498  0.96890188     1.59700
Cd585      Cd  0.68758606  0.75099871  0.91606611     1.59600
O586        O  0.70119480  0.86567575  0.97116859    -0.80000
O587        O  0.76193396  0.74912754  0.93924804    -1.90500
Cd588      Cd  0.77077175  0.68082746  0.97043258     1.59900
O589        O  0.64050589  0.81780027  0.93897667    -0.80000
O590        O  0.83091134  0.62810307  0.94447148    -0.78600
C591        C  0.75036835  0.74534672  0.83571913     0.83900
C592        C  0.86382705  0.85997086  0.91561421     0.83600
O593        O  0.86934844  0.68241677  0.90102540    -0.77600
C594        C  0.75605082  0.75053732  0.54484566     0.84400
O595        O  0.79433346  0.74471195  0.85341865    -0.77700
C596        C  0.65277601  0.85795117  0.96088270     0.84500
C597        C  0.65466688  0.64623083  0.96343841     0.84800
O598        O  0.64370338  0.68540694  0.94023888    -0.80100
O599        O  0.86002190  0.19171546  0.60368648    -0.77600
C600        C  0.86134148  0.36290071  0.58153531     0.83400
O601        O  0.69686957  0.25242068  0.64410201    -0.78700
O602        O  0.69706429  0.36935367  0.52592730    -0.80200
O603        O  0.77434226  0.20270729  0.97433706    -0.80000
O604        O  0.82566477  0.13304646  0.56202150    -0.78600
Zn605      Zn  0.81581302  0.25585640  0.59804549     1.55700
O606        O  0.76241649  0.29239833  0.97341424    -0.80000
Cd607      Cd  0.76925464  0.18418963  0.53275683     1.59700
Cd608      Cd  0.68169521  0.25478870  0.58171389     1.59600
O609        O  0.70080680  0.14005388  0.52489142    -0.80000
O610        O  0.75698633  0.25436844  0.56082916    -1.90500
Cd611      Cd  0.76585420  0.32146672  0.52960841     1.59900
O612        O  0.63974491  0.18751262  0.55767523    -0.80000
O613        O  0.82911317  0.37080347  0.55269623    -0.78600
C614        C  0.74127086  0.25388999  0.66384437     0.83900
C615        C  0.85755122  0.14473141  0.59016109     0.83600
O616        O  0.86239768  0.31861648  0.59947690    -0.77600
C617        C  0.76033267  0.24619699  0.95716400     0.84400
O618        O  0.78652628  0.25730104  0.64799805    -0.77700
C619        C  0.65245888  0.14865159  0.53467383     0.84500
C620        C  0.64833744  0.36168111  0.53600840     0.84800
O621        O  0.63555399  0.32164384  0.55808630    -0.80100
O622        O  0.62887082  0.18108027  0.77458239    -0.77600
C623        C  0.63650606  0.35717189  0.79411534     0.83400
O624        O  0.78792945  0.25086750  0.72516270    -0.78700
O625        O  0.79605644  0.35666511  0.84749031    -0.80200
O626        O  0.73285259  0.19845929  0.90037850    -0.80000
O627        O  0.67050679  0.12537184  0.81558825    -0.78600
Zn628      Zn  0.67469003  0.24612086  0.77583117     1.55700
O629        O  0.73020669  0.28858810  0.90031808    -0.80000
Cd630      Cd  0.72913793  0.17704027  0.84174986     1.59700
Cd631      Cd  0.80773121  0.24735163  0.78625252     1.59600
O632        O  0.79997991  0.13526323  0.84536034    -0.80000
O633        O  0.73558020  0.24519744  0.81132347    -1.90500
Cd634      Cd  0.72768584  0.31150138  0.84363347     1.59900
O635        O  0.85655607  0.18335376  0.80885831    -0.80000
O636        O  0.66658141  0.36274585  0.82406114    -0.78600
C637        C  0.74275603  0.25059017  0.70644471     0.83900
C638        C  0.63544994  0.13441400  0.78874905     0.83600
O639        O  0.63482255  0.31387456  0.77492817    -0.77600
C640        C  0.73999081  0.24389535  0.91703425     0.84400
O641        O  0.69818281  0.24728535  0.72338396    -0.77700
C642        C  0.84732628  0.14558439  0.83374456     0.84500
C643        C  0.84265027  0.34997217  0.83334894     0.84800
O644        O  0.85224070  0.31359882  0.80773849    -0.80100
O645        O  0.43608639  0.62169127  0.96868654    -0.77600
C646        C  0.61083076  0.61228158  0.97935286     0.83400
O647        O  0.49390632  0.46195930  0.91646338    -0.78700
O648        O  0.61257371  0.44994866  0.53673146    -0.80200
O649        O  0.45167243  0.52011127  0.59018566    -0.80000
O650        O  0.37914856  0.57632860  0.50635350    -0.78600
Zn651      Zn  0.49936303  0.57479942  0.96838497     1.55700
O652        O  0.54218986  0.52111260  0.59080741    -0.80000
Cd653      Cd  0.43046993  0.51797395  0.53216071     1.59700
Cd654      Cd  0.49996702  0.43743640  0.97797464     1.59600
O655        O  0.38592870  0.44814226  0.53497162    -0.80000
O656        O  0.49952634  0.51083719  0.00245252    -1.90500
Cd657      Cd  0.56715024  0.51946881  0.53311370     1.59900
O658        O  0.43384955  0.38928437  0.00064965    -0.80000
O659        O  0.61907685  0.57840561  0.50714764    -0.78600
C660        C  0.49244836  0.50821004  0.89852255     0.83900
C661        C  0.38898576  0.61331546  0.98112435     0.83600
O662        O  0.56485828  0.61782418  0.96448742    -0.77600
C663        C  0.49664059  0.51474310  0.60771854     0.84400
O664        O  0.49512623  0.55211539  0.91621808    -0.77700
C665        C  0.39394113  0.40040751  0.52327479     0.84500
C666        C  0.60736435  0.40269411  0.52325703     0.84800
O667        O  0.56937918  0.39152783  0.99895474    -0.80100
O668        O  0.45138936  0.38129422  0.78590295    -0.77600
C669        C  0.60131991  0.40049599  0.78124168     0.83400
O670        O  0.50094956  0.55538482  0.83629785    -0.78700
O671        O  0.61835888  0.54682235  0.72419445    -0.80200
O672        O  0.45098046  0.49115107  0.66612583    -0.80000
O673        O  0.38901189  0.42144558  0.74978403    -0.78600
Zn674      Zn  0.49803436  0.44496799  0.79236819     1.55700
O675        O  0.54107997  0.49155720  0.66599113    -0.80000
Cd676      Cd  0.42989694  0.48748515  0.72457431     1.59700
Cd677      Cd  0.49887763  0.57447230  0.77341525     1.59600
O678        O  0.37906791  0.55253083  0.72481699    -0.80000
O679        O  0.49688493  0.50029499  0.75329853    -1.90500
Cd680      Cd  0.56306565  0.48493778  0.72350713     1.59900
O681        O  0.43162995  0.61763220  0.74793967    -0.80000
O682        O  0.59890993  0.41386388  0.74500564    -0.78600
C683        C  0.48748484  0.51239738  0.85584047     0.83900
C684        C  0.40363457  0.38411280  0.77347804     0.83600
O685        O  0.57072346  0.42146772  0.80640505    -0.77600
C686        C  0.49609105  0.49842130  0.64893418     0.84400
O687        O  0.47021313  0.47096197  0.83942846    -0.77700
C688        C  0.38902968  0.60213451  0.72986088     0.84500
C689        C  0.61006243  0.59683414  0.72912574     0.84800
O690        O  0.56778117  0.61382851  0.74707076    -0.80100
O691        O  0.06692486  0.61186031  0.65693828    -0.77600
C692        C  0.89122285  0.60918249  0.63893101     0.83400
O693        O  0.00342638  0.45341820  0.70440818    -0.78700
O694        O  0.88965652  0.45308930  0.58396618    -0.80200
O695        O  0.04765237  0.51453026  0.52911746    -0.80000
O696        O  0.11914705  0.58301971  0.60827759    -0.78600
Zn697      Zn  0.00186626  0.56802160  0.65618092     1.55700
O698        O  0.95767444  0.51299088  0.52984705    -0.80000
Cd699      Cd  0.06978839  0.52034654  0.58653182     1.59700
Cd700      Cd  0.00301187  0.43779765  0.64211922     1.59600
O701        O  0.11569809  0.45212209  0.58268936    -0.80000
O702        O  0.00290240  0.51067926  0.61856051    -1.90500
Cd703      Cd  0.93603893  0.52004513  0.58695505     1.59900
O704        O  0.06866555  0.39331112  0.61814553    -0.80000
O705        O  0.88544274  0.58162467  0.60766318    -0.78600
C706        C  0.00362144  0.49770919  0.72429213     0.83900
C707        C  0.11100770  0.61248205  0.63847267     0.83600
O708        O  0.93431140  0.60828499  0.65837863    -0.77600
C709        C  0.00263701  0.50348868  0.51336889     0.84400
O710        O  0.00354004  0.54292100  0.70817543    -0.77700
C711        C  0.10688869  0.40434386  0.59404686     0.84500
C712        C  0.89784587  0.40555146  0.59566201     0.84800
O713        O  0.93631340  0.39413592  0.61929089    -0.80100
O714        O  0.06196334  0.37630529  0.83204282    -0.77600
C715        C  0.88679596  0.38450897  0.84777039     0.83400
O716        O  0.00319851  0.54219709  0.78730479    -0.78700
O717        O  0.88987583  0.54402838  0.91083468    -0.80200
O718        O  0.04715358  0.46926595  0.95784924    -0.80000
O719        O  0.12016799  0.41476620  0.87253418    -0.78600
Zn720      Zn  0.99881838  0.42371067  0.83385280     1.55700
O721        O  0.95675837  0.47040316  0.95862119    -0.80000
Cd722      Cd  0.06987368  0.47304996  0.90043784     1.59700
Cd723      Cd  0.00196406  0.55760475  0.84992335     1.59600
O724        O  0.11403358  0.54242339  0.91026599    -0.80000
O725        O  0.00079262  0.48297325  0.87117432    -1.90500
Cd726      Cd  0.93269981  0.47394156  0.90191332     1.59900
O727        O  0.06775852  0.60170122  0.87525598    -0.80000
O728        O  0.87973587  0.41632354  0.87686499    -0.78600
C729        C  0.00303408  0.49795371  0.76718621     0.83900
C730        C  0.10887174  0.38045314  0.84576652     0.83600
O731        O  0.93180836  0.38131685  0.83064405    -0.77600
C732        C  0.00222864  0.47941614  0.97443965     0.84400
O733        O  0.00163681  0.45237086  0.78288689    -0.77700
C734        C  0.10504743  0.59066252  0.90004506     0.84500
C735        C  0.89868545  0.59193698  0.89974642     0.84800
O736        O  0.93596860  0.60250012  0.87462969    -0.80100
loop_ 
_geom_bond_atom_site_label_1 
_geom_bond_atom_site_label_2 
_geom_bond_distance 
_geom_bond_site_symmetry_2 
_ccdc_geom_bond_type 
O1           C17   1.266       .  A
O1           Zn7   1.957       .  S
C2           O18   1.270       .  A
C2           O15   1.291       .  A
C2           C48   1.487       .  S
O3           C16   1.292   1_455  A
O3          Cd10   2.184       .  S
O4           C22   1.271       .  A
O4          Cd13   2.061   1_565  S
O5           C19   1.276       .  A
O5           Cd9   2.054       .  S
O6           C17   1.282       .  A
O6           Cd9   2.138       .  S
Zn7          O18   2.021   1_655  S
Zn7          O20   1.916       .  S
Zn7          O12   1.901       .  S
O8           C19   1.278   1_455  A
O8          Cd13   2.064       .  S
Cd9          O11   2.030   1_545  S
Cd9          O12   1.973       .  S
Cd10         O14   2.154   1_455  S
Cd10         O23   2.120       .  S
Cd10         O12   1.974   1_465  S
O11          C21   1.266       .  A
O12         Cd13   1.969   1_655  S
Cd13         O15   2.155       .  S
O14          C21   1.289       .  A
C16          O20   1.253   1_565  A
C16         C410   1.472   1_564  S
C17         C247   1.470       .  S
C19          C39   1.453   1_655  S
C21         C201   1.487       .  S
C22          O23   1.283       .  A
C22          C94   1.485       .  S
O24          C40   1.270       .  A
O24         Zn30   2.009   1_655  S
C25          O41   1.264       .  A
C25          O38   1.287       .  A
C25          C71   1.479       .  S
O26          C39   1.292   1_565  A
O26         Cd33   2.161       .  S
O27          C45   1.266       .  A
O27         Cd36   2.034   1_565  S
O28          C42   1.282       .  A
O28         Cd32   2.070       .  S
O29          C40   1.286       .  A
O29         Cd32   2.141       .  S
Zn30         O41   1.963       .  S
Zn30         O43   1.866       .  S
Zn30         O35   1.940       .  S
O31          C42   1.276   1_455  A
O31         Cd36   2.078       .  S
Cd32         O34   2.055   1_545  S
Cd32         O35   1.990   1_655  S
Cd33         O37   2.131   1_455  S
Cd33         O46   2.136       .  S
Cd33         O35   2.004   1_565  S
O34          C44   1.268       .  A
O35         Cd36   2.003       .  S
Cd36         O38   2.154       .  S
O37          C44   1.284       .  A
C39          O43   1.250       .  A
C40         C274   1.493       .  S
C42         C384   1.472   1_545  S
C44         C224   1.487       .  S
C45          O46   1.285       .  A
C45         C117   1.482       .  S
O47          C63   1.266       .  A
O47         Zn53   1.984       .  S
C48          O64   1.264       .  A
C48          O61   1.287       .  A
O49          C62   1.294       .  A
O49         Cd56   2.176       .  S
O50          C68   1.267       .  A
O50         Cd59   2.034       .  S
O51          C65   1.282       .  A
O51        Cd423   2.077       .  S
O52          C63   1.287       .  A
O52         Cd55   2.145       .  S
Zn53         O64   1.971       .  S
Zn53         O66   1.873       .  S
Zn53         O58   1.940       .  S
O54          C65   1.277       .  A
O54        Cd427   2.081       .  S
Cd55         O57   2.068       .  S
Cd55        O419   2.077   1_554  S
Cd55         O58   1.999       .  S
Cd56         O60   2.171       .  S
Cd56         O69   2.127       .  S
Cd56         O58   2.014       .  S
O57          C67   1.270       .  A
O58         Cd59   2.019       .  S
Cd59         O61   2.168       .  S
Cd59        O422   2.081   1_554  S
O60          C67   1.286       .  A
C62          O66   1.252       .  A
C62          C88   1.459       .  S
C63         C343   1.487       .  S
C65          C85   1.472       .  S
C67         C297   1.498       .  S
C68          O69   1.285       .  A
C68         C140   1.478       .  S
O70          C86   1.266       .  A
O70         Zn76   1.966       .  S
C71          O87   1.269       .  A
C71          O84   1.292       .  A
O72          C85   1.291       .  A
O72         Cd79   2.190       .  S
O73          C91   1.273       .  A
O73         Cd82   2.068       .  S
O74          C88   1.276       .  A
O74         Cd78   2.055       .  S
O75          C86   1.281       .  A
O75         Cd78   2.135       .  S
Zn76         O87   2.004       .  S
Zn76         O89   1.913       .  S
Zn76         O81   1.888       .  S
O77          C88   1.281       .  A
O77         Cd82   2.088       .  S
Cd78         O80   2.007       .  S
Cd78         O81   1.963       .  S
Cd79         O83   2.144       .  S
Cd79         O92   2.141       .  S
Cd79         O81   1.981       .  S
O80          C90   1.265       .  A
O81         Cd82   1.954       .  S
Cd82         O84   2.150       .  S
O83          C90   1.287       .  A
C85          O89   1.251       .  A
C86         C362   1.472       .  S
C90         C316   1.475       .  S
C91          O92   1.284       .  A
C91         C183   1.485       .  S
O93         C109   1.268       .  A
O93         Zn99   1.983       .  S
C94         O110   1.267       .  A
C94         O107   1.283       .  A
O95         C108   1.290       .  A
O95        Cd102   2.183       .  S
O96         C114   1.262       .  A
O96        Cd105   1.992       .  S
O97         C111   1.279       .  A
O97        Cd101   2.081       .  S
O98         C109   1.290       .  A
O98        Cd101   2.129       .  S
Zn99        O110   1.978       .  S
Zn99        O112   1.912       .  S
Zn99        O104   1.900       .  S
O100        C111   1.276       .  A
O100       Cd105   2.052       .  S
Cd101       O103   2.071       .  S
Cd101       O104   1.957       .  S
Cd102       O106   2.147       .  S
Cd102       O115   2.103       .  S
Cd102       O104   1.977       .  S
O103        C113   1.272       .  A
O104       Cd105   1.965       .  S
Cd105       O107   2.136       .  S
O106        C113   1.282       .  A
C108        O112   1.253       .  A
C108        C134   1.472       .  S
C109        C339   1.464       .  S
C111        C131   1.457       .  S
C113        C320   1.494       .  S
C114        O115   1.285       .  A
C114        C163   1.457       .  S
O116        C132   1.264       .  A
O116       Zn122   1.982       .  S
C117        O133   1.265       .  A
C117        O130   1.285       .  A
O118        C131   1.296       .  A
O118       Cd125   2.183       .  S
O119        C137   1.271       .  A
O119       Cd128   2.083       .  S
O120        C134   1.281       .  A
O120       Cd492   2.098   1_554  S
O121        C132   1.291       .  A
O121       Cd124   2.187       .  S
Zn122       O133   1.977       .  S
Zn122       O135   1.857       .  S
Zn122       O127   1.953       .  S
O123        C134   1.280       .  A
O123       Cd496   2.061   1_554  S
Cd124       O126   2.034       .  S
Cd124       O488   2.098       .  S
Cd124       O127   2.015       .  S
Cd125       O129   2.120       .  S
Cd125       O138   2.180       .  S
Cd125       O127   2.016       .  S
O126        C136   1.266       .  A
O127       Cd128   1.995       .  S
Cd128       O130   2.133       .  S
Cd128       O491   2.061       .  S
O129        C136   1.284       .  A
C131        O135   1.250       .  A
C132        C366   1.503       .  S
C136        C293   1.476       .  S
C137        O138   1.286       .  A
C137        C160   1.509       .  S
O139        C155   1.261       .  A
O139       Zn145   1.962       .  S
C140        O156   1.261       .  A
C140        O521   1.284   1_554  A
O141        C154   1.302       .  A
O141       Cd148   2.183       .  S
O142        C160   1.271       .  A
O142       Cd151   2.076   1_565  S
O143        C157   1.280       .  A
O143       Cd147   2.067       .  S
O144        C523   1.287       .  A
O144       Cd147   2.158       .  S
Zn145       O156   1.961       .  S
Zn145       O158   1.858       .  S
Zn145       O150   1.963   1_554  S
O146        C157   1.279       .  A
O146       Cd151   2.055       .  S
Cd147       O149   2.079   1_545  S
Cd147       O518   2.007       .  S
Cd148       O152   2.179   1_554  S
Cd148       O161   2.187   1_554  S
Cd148       O150   2.013   1_564  S
O149        C159   1.272       .  A
O150       Cd515   2.007       .  S
O150       Cd519   2.005       .  S
Cd151       O153   2.135       .  S
Cd151       O518   2.005       .  S
O152        C527   1.287       .  A
O153        C508   1.284       .  A
C154        O158   1.252   1_565  A
C154        C177   1.461       .  S
C155        O512   1.287   1_554  A
C155        C251   1.487       .  S
C157        C180   1.467   1_545  S
C159        O520   1.287       .  A
C159        C228   1.506       .  S
C160        O529   1.288       .  A
O161        C528   1.288       .  A
O162        C178   1.258       .  A
O162       Zn168   1.929       .  S
C163        O179   1.256       .  A
C163        O176   1.281       .  A
O164        C177   1.297   1_545  A
O164       Cd171   2.164       .  S
O165        C183   1.267       .  A
O165       Cd174   2.046   1_545  S
O166        C180   1.278       .  A
O166       Cd170   2.056       .  S
O167        C178   1.284       .  A
O167       Cd170   2.124       .  S
Zn168       O179   1.916       .  S
Zn168       O181   1.867       .  S
Zn168       O173   1.943       .  S
O169        C180   1.276       .  A
O169       Cd174   2.053       .  S
Cd170       O172   2.051   1_565  S
Cd170       O173   1.990       .  S
Cd171       O175   2.128       .  S
Cd171       O184   2.148       .  S
Cd171       O173   1.987   1_545  S
O172        C182   1.267       .  A
O173       Cd174   1.984       .  S
Cd174       O176   2.101       .  S
O175        C182   1.284       .  A
C177        O181   1.249       .  A
C178        C205   1.467       .  S
C182        C270   1.486       .  S
C183        O184   1.283       .  A
O185        C201   1.265       .  A
O185       Zn191   1.984       .  S
C186        O202   1.268       .  A
C186        O199   1.289       .  A
C186        C324   1.461       .  S
O187        C200   1.290       .  A
O187       Cd194   2.190       .  S
O188        C206   1.274       .  A
O188       Cd197   2.081       .  S
O189        C203   1.275       .  A
O189       Cd193   2.050       .  S
O190        C201   1.285       .  A
O190       Cd193   2.135       .  S
Zn191       O202   1.977       .  S
Zn191       O204   1.909       .  S
Zn191       O196   1.904       .  S
O192        C203   1.279       .  A
O192       Cd197   2.080       .  S
Cd193       O195   2.006       .  S
Cd193       O196   1.963       .  S
Cd194       O198   2.120       .  S
Cd194       O207   2.144       .  S
Cd194       O196   1.979       .  S
O195        C205   1.264       .  A
O196       Cd197   1.963       .  S
Cd197       O199   2.126       .  S
O198        C205   1.287       .  A
C200        O204   1.251       .  A
C200        C226   1.472       .  S
C203        C223   1.456       .  S
C206        O207   1.282       .  A
C206        C321   1.496       .  S
O208        C224   1.266       .  A
O208       Zn214   1.986       .  S
C209        O225   1.265       .  A
C209        O222   1.290       .  A
C209        C367   1.500       .  S
O210        C223   1.295       .  A
O210       Cd217   2.177       .  S
O211        C229   1.266       .  A
O211       Cd220   2.039       .  S
O212        C226   1.280       .  A
O212       Cd584   2.064   1_554  S
O213        C224   1.286       .  A
O213       Cd216   2.141       .  S
Zn214       O225   1.988       .  S
Zn214       O227   1.866       .  S
Zn214       O219   1.954       .  S
O215        C226   1.281       .  A
O215       Cd588   2.094   1_554  S
Cd216       O218   2.078       .  S
Cd216       O580   2.064       .  S
Cd216       O219   1.999       .  S
Cd217       O221   2.178       .  S
Cd217       O230   2.127       .  S
Cd217       O219   2.015       .  S
O218        C228   1.271       .  A
O219       Cd220   2.015       .  S
Cd220       O222   2.177       .  S
Cd220       O583   2.094       .  S
O221        C228   1.287       .  A
C223        O227   1.252       .  A
C229        O230   1.284       .  A
C229        C278   1.481       .  S
O231        C247   1.259       .  A
O231       Zn237   1.947       .  S
C232        O248   1.259       .  A
C232        O245   1.287       .  A
C232        C344   1.480       .  S
O233        C246   1.297       .  A
O233       Cd240   2.166       .  S
O234        C252   1.274       .  A
O234       Cd243   2.089       .  S
O235        C249   1.278       .  A
O235       Cd607   2.051       .  S
O236        C247   1.282       .  A
O236       Cd239   2.142       .  S
Zn237       O248   1.945       .  S
Zn237       O250   1.854       .  S
Zn237       O242   1.943       .  S
O238        C249   1.278       .  A
O238       Cd611   2.055       .  S
Cd239       O241   2.045       .  S
Cd239       O603   2.051   1_554  S
Cd239       O242   2.016       .  S
Cd240       O244   2.139       .  S
Cd240       O253   2.176       .  S
Cd240       O242   2.002       .  S
O241        C251   1.266       .  A
O242       Cd243   1.990       .  S
Cd243       O245   2.149       .  S
Cd243       O606   2.055   1_554  S
O244        C251   1.286       .  A
C246        O250   1.250       .  A
C246        C269   1.458       .  S
C249        C272   1.464       .  S
C252        O253   1.287       .  A
C252        C298   1.507       .  S
O254        C270   1.267       .  A
O254       Zn260   1.980       .  S
C255        O271   1.263       .  A
C255        O268   1.277       .  A
C255        C301   1.456       .  S
O256        C269   1.295       .  A
O256       Cd263   2.148       .  S
O257        C275   1.265       .  A
O257       Cd266   2.044       .  S
O258        C272   1.279       .  A
O258       Cd262   2.076       .  S
O259        C270   1.287       .  A
O259       Cd262   2.143       .  S
Zn260       O271   1.955       .  S
Zn260       O273   1.883       .  S
Zn260       O265   1.944       .  S
O261        C272   1.272       .  A
O261       Cd266   2.018       .  S
Cd262       O264   2.050       .  S
Cd262       O265   1.992       .  S
Cd263       O267   2.146       .  S
Cd263       O276   2.119       .  S
Cd263       O265   1.987       .  S
O264        C274   1.268       .  A
O265       Cd266   1.996       .  S
Cd266       O268   2.094       .  S
O267        C274   1.286       .  A
C269        O273   1.252       .  A
C275        O276   1.282       .  A
C275        C347   1.481       .  S
O277        C293   1.262       .  A
O277       Zn283   1.959       .  S
C278        O294   1.261       .  A
C278        O659   1.285       .  A
O279        C292   1.303       .  A
O279       Cd286   2.192       .  S
O280        C298   1.270       .  A
O280       Cd289   2.069       .  S
O281        C295   1.278       .  A
O281       Cd285   2.054       .  S
O282        C661   1.282   1_554  A
O282       Cd285   2.125       .  S
Zn283       O294   1.954       .  S
Zn283       O296   1.874       .  S
Zn283       O288   1.969       .  S
O284        C295   1.280       .  A
O284       Cd289   2.065       .  S
Cd285       O287   2.062       .  S
Cd285       O656   2.001       .  S
Cd286       O290   2.174       .  S
Cd286       O299   2.192       .  S
Cd286       O288   2.010       .  S
O287        C297   1.269       .  A
O288       Cd653   2.001       .  S
O288       Cd657   1.997       .  S
Cd289       O291   2.143       .  S
Cd289       O656   1.997       .  S
O290        C665   1.287       .  A
O291        C646   1.285   1_554  A
C292        O296   1.251       .  A
C292        C315   1.467       .  S
C293        O650   1.282       .  A
C295        C318   1.464       .  S
C297        O658   1.287       .  A
C298        O667   1.291   1_554  A
O299        C666   1.291       .  A
O300        C316   1.265       .  A
O300       Zn306   1.977       .  S
C301        O317   1.260       .  A
C301        O314   1.283       .  A
O302        C315   1.302       .  A
O302       Cd309   2.200       .  S
O303        C321   1.272       .  A
O303       Cd312   2.065       .  S
O304        C318   1.278       .  A
O304       Cd308   2.064       .  S
O305        C316   1.284       .  A
O305       Cd308   2.112       .  S
Zn306       O317   1.961       .  S
Zn306       O319   1.865       .  S
Zn306       O311   1.915       .  S
O307        C318   1.275       .  A
O307       Cd312   2.048       .  S
Cd308       O310   2.053       .  S
Cd308       O311   1.964       .  S
Cd309       O313   2.171       .  S
Cd309       O322   2.166       .  S
Cd309       O311   1.971       .  S
O310        C320   1.271       .  A
O311       Cd312   1.971       .  S
Cd312       O314   2.111       .  S
O313        C320   1.288       .  A
C315        O319   1.251       .  A
C321        O322   1.287       .  A
O323        C339   1.263       .  A
O323       Zn329   1.952       .  S
C324        O340   1.263       .  A
C324        O337   1.279       .  A
O325        C338   1.295       .  A
O325       Cd332   2.164       .  S
O326        C344   1.264       .  A
O326       Cd335   2.029       .  S
O327        C341   1.275       .  A
O327       Cd331   2.045       .  S
O328        C339   1.282       .  A
O328       Cd331   2.122       .  S
Zn329       O340   1.958   1_455  S
Zn329       O342   1.882       .  S
Zn329       O334   1.922       .  S
O330        C341   1.273   1_655  A
O330       Cd335   2.030       .  S
Cd331       O333   2.049       .  S
Cd331       O334   2.003       .  S
Cd332       O336   2.135       .  S
Cd332       O345   2.134   1_455  S
Cd332       O334   1.981       .  S
O333        C343   1.268       .  A
O334       Cd335   2.000   1_455  S
Cd335       O337   2.104       .  S
O336        C343   1.285       .  A
C338        O342   1.251       .  A
C338        C361   1.465       .  S
C341        C732   1.460   1_554  S
C344        O345   1.285       .  A
O346        C362   1.264       .  A
O346       Zn352   1.965   1_455  S
C347        O363   1.264       .  A
C347        O360   1.283       .  A
O348        C361   1.299       .  A
O348       Cd355   2.174       .  S
O349        C367   1.268       .  A
O349       Cd358   2.065       .  S
O350        C364   1.277       .  A
O350       Cd354   2.041       .  S
O351        C362   1.284       .  A
O351       Cd354   2.138       .  S
Zn352       O363   1.976       .  S
Zn352       O365   1.881   1_655  S
Zn352       O357   1.952   1_655  S
O353        C364   1.276   1_655  A
O353       Cd358   2.031       .  S
Cd354       O356   2.074       .  S
Cd354       O357   2.006       .  S
Cd355       O359   2.156       .  S
Cd355       O368   2.156   1_455  S
Cd355       O357   1.991       .  S
O356        C366   1.269       .  A
O357       Cd358   2.003   1_455  S
Cd358       O360   2.130       .  S
O359        C366   1.287       .  A
C361        O365   1.253       .  A
C364        C709   1.460       .  S
C367        O368   1.288       .  A
O369        C385   1.266       .  A
O369       Zn375   1.957       .  S
C370        O386   1.270       .  A
C370        O383   1.291       .  A
C370        C416   1.487       .  S
O371        C384   1.292   1_455  A
O371       Cd378   2.184       .  S
O372        C390   1.271       .  A
O372       Cd381   2.061   1_565  S
O373        C387   1.276       .  A
O373       Cd377   2.054       .  S
O374        C385   1.282       .  A
O374       Cd377   2.138       .  S
Zn375       O386   2.021   1_655  S
Zn375       O388   1.916       .  S
Zn375       O380   1.901       .  S
O376        C387   1.278   1_455  A
O376       Cd381   2.064       .  S
Cd377       O379   2.030   1_545  S
Cd377       O380   1.973       .  S
Cd378       O382   2.154   1_455  S
Cd378       O391   2.120       .  S
Cd378       O380   1.974   1_465  S
O379        C389   1.266       .  A
O380       Cd381   1.969   1_655  S
Cd381       O383   2.155       .  S
O382        C389   1.289       .  A
C384        O388   1.253   1_565  A
C385        C615   1.470       .  S
C387        C407   1.453   1_655  S
C389        C569   1.487       .  S
C390        O391   1.283       .  A
C390        C462   1.485       .  S
O392        C408   1.270       .  A
O392       Zn398   2.009   1_655  S
C393        O409   1.264       .  A
C393        O406   1.287       .  A
C393        C439   1.479       .  S
O394        C407   1.292   1_565  A
O394       Cd401   2.161       .  S
O395        C413   1.266       .  A
O395       Cd404   2.034   1_565  S
O396        C410   1.282       .  A
O396       Cd400   2.070       .  S
O397        C408   1.286       .  A
O397       Cd400   2.141       .  S
Zn398       O409   1.963       .  S
Zn398       O411   1.866       .  S
Zn398       O403   1.940       .  S
O399        C410   1.276   1_455  A
O399       Cd404   2.078       .  S
Cd400       O402   2.055   1_545  S
Cd400       O403   1.990   1_655  S
Cd401       O405   2.131   1_455  S
Cd401       O414   2.136       .  S
Cd401       O403   2.004   1_565  S
O402        C412   1.268       .  A
O403       Cd404   2.003       .  S
Cd404       O406   2.154       .  S
O405        C412   1.284       .  A
C407        O411   1.250       .  A
C408        C642   1.493       .  S
C412        C592   1.487       .  S
C413        O414   1.285       .  A
C413        C485   1.482       .  S
O415        C431   1.266       .  A
O415       Zn421   1.984       .  S
C416        O432   1.264       .  A
C416        O429   1.287       .  A
O417        C430   1.294       .  A
O417       Cd424   2.176       .  S
O418        C436   1.267       .  A
O418       Cd427   2.034       .  S
O419        C433   1.282       .  A
O420        C431   1.287       .  A
O420       Cd423   2.145       .  S
Zn421       O432   1.971       .  S
Zn421       O434   1.873       .  S
Zn421       O426   1.940       .  S
O422        C433   1.277       .  A
Cd423       O425   2.068       .  S
Cd423       O426   1.999       .  S
Cd424       O428   2.171       .  S
Cd424       O437   2.127       .  S
Cd424       O426   2.014       .  S
O425        C435   1.270       .  A
O426       Cd427   2.019       .  S
Cd427       O429   2.168       .  S
O428        C435   1.286       .  A
C430        O434   1.252       .  A
C430        C456   1.459       .  S
C431        C711   1.487       .  S
C433        C453   1.472       .  S
C435        C665   1.498       .  S
C436        O437   1.285       .  A
C436        C508   1.478       .  S
O438        C454   1.266       .  A
O438       Zn444   1.966       .  S
C439        O455   1.269       .  A
C439        O452   1.292       .  A
O440        C453   1.291       .  A
O440       Cd447   2.190       .  S
O441        C459   1.273       .  A
O441       Cd450   2.068       .  S
O442        C456   1.276       .  A
O442       Cd446   2.055       .  S
O443        C454   1.281       .  A
O443       Cd446   2.135       .  S
Zn444       O455   2.004       .  S
Zn444       O457   1.913       .  S
Zn444       O449   1.888       .  S
O445        C456   1.281       .  A
O445       Cd450   2.088       .  S
Cd446       O448   2.007       .  S
Cd446       O449   1.963       .  S
Cd447       O451   2.144       .  S
Cd447       O460   2.141       .  S
Cd447       O449   1.981       .  S
O448        C458   1.265       .  A
O449       Cd450   1.954       .  S
Cd450       O452   2.150       .  S
O451        C458   1.287       .  A
C453        O457   1.251       .  A
C454        C730   1.472       .  S
C458        C684   1.475       .  S
C459        O460   1.284       .  A
C459        C551   1.485       .  S
O461        C477   1.268       .  A
O461       Zn467   1.983       .  S
C462        O478   1.267       .  A
C462        O475   1.283       .  A
O463        C476   1.290       .  A
O463       Cd470   2.183       .  S
O464        C482   1.262       .  A
O464       Cd473   1.992       .  S
O465        C479   1.279       .  A
O465       Cd469   2.081       .  S
O466        C477   1.290       .  A
O466       Cd469   2.129       .  S
Zn467       O478   1.978       .  S
Zn467       O480   1.912       .  S
Zn467       O472   1.900       .  S
O468        C479   1.276       .  A
O468       Cd473   2.052       .  S
Cd469       O471   2.071       .  S
Cd469       O472   1.957       .  S
Cd470       O474   2.147       .  S
Cd470       O483   2.103       .  S
Cd470       O472   1.977       .  S
O471        C481   1.272       .  A
O472       Cd473   1.965       .  S
Cd473       O475   2.136       .  S
O474        C481   1.282       .  A
C476        O480   1.253       .  A
C476        C502   1.472       .  S
C477        C707   1.464       .  S
C479        C499   1.457       .  S
C481        C688   1.494       .  S
C482        O483   1.285       .  A
C482        C531   1.457       .  S
O484        C500   1.264       .  A
O484       Zn490   1.982       .  S
C485        O501   1.265       .  A
C485        O498   1.285       .  A
O486        C499   1.296       .  A
O486       Cd493   2.183       .  S
O487        C505   1.271       .  A
O487       Cd496   2.083       .  S
O488        C502   1.281       .  A
O489        C500   1.291       .  A
O489       Cd492   2.187       .  S
Zn490       O501   1.977       .  S
Zn490       O503   1.857       .  S
Zn490       O495   1.953       .  S
O491        C502   1.280       .  A
Cd492       O494   2.034       .  S
Cd492       O495   2.015       .  S
Cd493       O497   2.120       .  S
Cd493       O506   2.180       .  S
Cd493       O495   2.016       .  S
O494        C504   1.266       .  A
O495       Cd496   1.995       .  S
Cd496       O498   2.133       .  S
O497        C504   1.284       .  A
C499        O503   1.250       .  A
C500        C734   1.503       .  S
C504        C661   1.476       .  S
C505        O506   1.286       .  A
C505        C528   1.509       .  S
O507        C523   1.261       .  A
O507       Zn513   1.962       .  S
C508        O524   1.261       .  A
O509        C522   1.302       .  A
O509       Cd516   2.183       .  S
O510        C528   1.271       .  A
O510       Cd519   2.076   1_565  S
O511        C525   1.280       .  A
O511       Cd515   2.067       .  S
O512       Cd515   2.158       .  S
Zn513       O524   1.961       .  S
Zn513       O526   1.858       .  S
Zn513       O518   1.963       .  S
O514        C525   1.279       .  A
O514       Cd519   2.055       .  S
Cd515       O517   2.079   1_545  S
Cd516       O520   2.179       .  S
Cd516       O529   2.187       .  S
Cd516       O518   2.013   1_565  S
O517        C527   1.272       .  A
Cd519       O521   2.135       .  S
C522        O526   1.252   1_565  A
C522        C545   1.461       .  S
C523        C619   1.487       .  S
C525        C548   1.467   1_545  S
C527        C596   1.506       .  S
O530        C546   1.258       .  A
O530       Zn536   1.929       .  S
C531        O547   1.256       .  A
C531        O544   1.281       .  A
O532        C545   1.297   1_545  A
O532       Cd539   2.164       .  S
O533        C551   1.267       .  A
O533       Cd542   2.046   1_545  S
O534        C548   1.278       .  A
O534       Cd538   2.056       .  S
O535        C546   1.284       .  A
O535       Cd538   2.124       .  S
Zn536       O547   1.916       .  S
Zn536       O549   1.867       .  S
Zn536       O541   1.943       .  S
O537        C548   1.276       .  A
O537       Cd542   2.053       .  S
Cd538       O540   2.051   1_565  S
Cd538       O541   1.990       .  S
Cd539       O543   2.128       .  S
Cd539       O552   2.148       .  S
Cd539       O541   1.987   1_545  S
O540        C550   1.267       .  A
O541       Cd542   1.984       .  S
Cd542       O544   2.101       .  S
O543        C550   1.284       .  A
C545        O549   1.249       .  A
C546        C573   1.467       .  S
C550        C638   1.486       .  S
C551        O552   1.283       .  A
O553        C569   1.265       .  A
O553       Zn559   1.984       .  S
C554        O570   1.268       .  A
C554        O567   1.289       .  A
C554        C692   1.461       .  S
O555        C568   1.290       .  A
O555       Cd562   2.190       .  S
O556        C574   1.274       .  A
O556       Cd565   2.081       .  S
O557        C571   1.275       .  A
O557       Cd561   2.050       .  S
O558        C569   1.285       .  A
O558       Cd561   2.135       .  S
Zn559       O570   1.977       .  S
Zn559       O572   1.909       .  S
Zn559       O564   1.904       .  S
O560        C571   1.279       .  A
O560       Cd565   2.080       .  S
Cd561       O563   2.006       .  S
Cd561       O564   1.963       .  S
Cd562       O566   2.120       .  S
Cd562       O575   2.144       .  S
Cd562       O564   1.979       .  S
O563        C573   1.264       .  A
O564       Cd565   1.963       .  S
Cd565       O567   2.126       .  S
O566        C573   1.287       .  A
C568        O572   1.251       .  A
C568        C594   1.472       .  S
C571        C591   1.456       .  S
C574        O575   1.282       .  A
C574        C689   1.496       .  S
O576        C592   1.266       .  A
O576       Zn582   1.986       .  S
C577        O593   1.265       .  A
C577        O590   1.290       .  A
C577        C735   1.500       .  S
O578        C591   1.295       .  A
O578       Cd585   2.177       .  S
O579        C597   1.266       .  A
O579       Cd588   2.039       .  S
O580        C594   1.280       .  A
O581        C592   1.286       .  A
O581       Cd584   2.141       .  S
Zn582       O593   1.988       .  S
Zn582       O595   1.866       .  S
Zn582       O587   1.954       .  S
O583        C594   1.281       .  A
Cd584       O586   2.078       .  S
Cd584       O587   1.999       .  S
Cd585       O589   2.178       .  S
Cd585       O598   2.127       .  S
Cd585       O587   2.015       .  S
O586        C596   1.271       .  A
O587       Cd588   2.015       .  S
Cd588       O590   2.177       .  S
O589        C596   1.287       .  A
C591        O595   1.252       .  A
C597        O598   1.284       .  A
C597        C646   1.481       .  S
O599        C615   1.259       .  A
O599       Zn605   1.947       .  S
C600        O616   1.259       .  A
C600        O613   1.287       .  A
C600        C712   1.480       .  S
O601        C614   1.297       .  A
O601       Cd608   2.166       .  S
O602        C620   1.274       .  A
O602       Cd611   2.089       .  S
O603        C617   1.278       .  A
O604        C615   1.282       .  A
O604       Cd607   2.142       .  S
Zn605       O616   1.945       .  S
Zn605       O618   1.854       .  S
Zn605       O610   1.943       .  S
O606        C617   1.278       .  A
Cd607       O609   2.045       .  S
Cd607       O610   2.016       .  S
Cd608       O612   2.139       .  S
Cd608       O621   2.176       .  S
Cd608       O610   2.002       .  S
O609        C619   1.266       .  A
O610       Cd611   1.990       .  S
Cd611       O613   2.149       .  S
O612        C619   1.286       .  A
C614        O618   1.250       .  A
C614        C637   1.458       .  S
C617        C640   1.464       .  S
C620        O621   1.287       .  A
C620        C666   1.507       .  S
O622        C638   1.267       .  A
O622       Zn628   1.980       .  S
C623        O639   1.263       .  A
C623        O636   1.277       .  A
C623        C669   1.456       .  S
O624        C637   1.295       .  A
O624       Cd631   2.148       .  S
O625        C643   1.265       .  A
O625       Cd634   2.044       .  S
O626        C640   1.279       .  A
O626       Cd630   2.076       .  S
O627        C638   1.287       .  A
O627       Cd630   2.143       .  S
Zn628       O639   1.955       .  S
Zn628       O641   1.883       .  S
Zn628       O633   1.944       .  S
O629        C640   1.272       .  A
O629       Cd634   2.018       .  S
Cd630       O632   2.050       .  S
Cd630       O633   1.992       .  S
Cd631       O635   2.146       .  S
Cd631       O644   2.119       .  S
Cd631       O633   1.987       .  S
O632        C642   1.268       .  A
O633       Cd634   1.996       .  S
Cd634       O636   2.094       .  S
O635        C642   1.286       .  A
C637        O641   1.252       .  A
C643        O644   1.282       .  A
C643        C715   1.481       .  S
O645        C661   1.262       .  A
O645       Zn651   1.959       .  S
C646        O662   1.261       .  A
O647        C660   1.303       .  A
O647       Cd654   2.192       .  S
O648        C666   1.270       .  A
O648       Cd657   2.069       .  S
O649        C663   1.278       .  A
O649       Cd653   2.054       .  S
O650       Cd653   2.125       .  S
Zn651       O662   1.954       .  S
Zn651       O664   1.874       .  S
Zn651       O656   1.969   1_556  S
O652        C663   1.280       .  A
O652       Cd657   2.065       .  S
Cd653       O655   2.062       .  S
Cd654       O658   2.174   1_556  S
Cd654       O667   2.192       .  S
Cd654       O656   2.010   1_556  S
O655        C665   1.269       .  A
Cd657       O659   2.143       .  S
C660        O664   1.251       .  A
C660        C683   1.467       .  S
C663        C686   1.464       .  S
O668        C684   1.265       .  A
O668       Zn674   1.977       .  S
C669        O685   1.260       .  A
C669        O682   1.283       .  A
O670        C683   1.302       .  A
O670       Cd677   2.200       .  S
O671        C689   1.272       .  A
O671       Cd680   2.065       .  S
O672        C686   1.278       .  A
O672       Cd676   2.064       .  S
O673        C684   1.284       .  A
O673       Cd676   2.112       .  S
Zn674       O685   1.961       .  S
Zn674       O687   1.865       .  S
Zn674       O679   1.915       .  S
O675        C686   1.275       .  A
O675       Cd680   2.048       .  S
Cd676       O678   2.053       .  S
Cd676       O679   1.964       .  S
Cd677       O681   2.171       .  S
Cd677       O690   2.166       .  S
Cd677       O679   1.971       .  S
O678        C688   1.271       .  A
O679       Cd680   1.971       .  S
Cd680       O682   2.111       .  S
O681        C688   1.288       .  A
C683        O687   1.251       .  A
C689        O690   1.287       .  A
O691        C707   1.263       .  A
O691       Zn697   1.952       .  S
C692        O708   1.263       .  A
C692        O705   1.279       .  A
O693        C706   1.295       .  A
O693       Cd700   2.164       .  S
O694        C712   1.264       .  A
O694       Cd703   2.029       .  S
O695        C709   1.275       .  A
O695       Cd699   2.045       .  S
O696        C707   1.282       .  A
O696       Cd699   2.122       .  S
Zn697       O708   1.958   1_455  S
Zn697       O710   1.882       .  S
Zn697       O702   1.922       .  S
O698        C709   1.273   1_655  A
O698       Cd703   2.030       .  S
Cd699       O701   2.049       .  S
Cd699       O702   2.003       .  S
Cd700       O704   2.135       .  S
Cd700       O713   2.134   1_455  S
Cd700       O702   1.981       .  S
O701        C711   1.268       .  A
O702       Cd703   2.000   1_455  S
Cd703       O705   2.104       .  S
O704        C711   1.285       .  A
C706        O710   1.251       .  A
C706        C729   1.465       .  S
C712        O713   1.285       .  A
O714        C730   1.264       .  A
O714       Zn720   1.965   1_455  S
C715        O731   1.264       .  A
C715        O728   1.283       .  A
O716        C729   1.299       .  A
O716       Cd723   2.174       .  S
O717        C735   1.268       .  A
O717       Cd726   2.065       .  S
O718        C732   1.277       .  A
O718       Cd722   2.041       .  S
O719        C730   1.284       .  A
O719       Cd722   2.138       .  S
Zn720       O731   1.976       .  S
Zn720       O733   1.881   1_655  S
Zn720       O725   1.952   1_655  S
O721        C732   1.276   1_655  A
O721       Cd726   2.031       .  S
Cd722       O724   2.074       .  S
Cd722       O725   2.006       .  S
Cd723       O727   2.156       .  S
Cd723       O736   2.156   1_455  S
Cd723       O725   1.991       .  S
O724        C734   1.269       .  A
O725       Cd726   2.003   1_455  S
Cd726       O728   2.130       .  S
O727        C734   1.287       .  A
C729        O733   1.253       .  A
C735        O736   1.288       .  A
