geometry optimzed in LAMMPS
_audit_creation_date              2020-11-30 
_audit_creation_method            'lammps2cif' 
_symmetry_space_group_name_H-M    'P1' 
_symmetry_Int_Tables_number       1 
_symmetry_cell_setting            triclinic 
loop_ 
_symmetry_equiv_pos_as_xyz 
  x,y,z 
_cell_length_a                    87.17807592 
_cell_length_b                    50.66360139739101 
_cell_length_c                    26.65988223103794 
_cell_angle_alpha                 90.26263015082156 
_cell_angle_beta                  90.01337355177013 
_cell_angle_gamma                 89.88046542665238 
loop_ 
_atom_site_label 
_atom_site_type_symbol 
_atom_site_fract_x 
_atom_site_fract_y 
_atom_site_fract_z 
_atom_site_charge 
O1          O  0.69800627  0.57127528  0.24826057    -0.81700
O2          O  0.69503199  0.45093543  0.19514023    -0.66400
O3          O  0.68388033  0.52305879  0.22014556    -1.13000
C4          C  0.68788244  0.49687213  0.39115014     1.05200
O5          O  0.67829131  0.43829667  0.25190988    -0.79600
O6          O  0.66293065  0.47001311  0.31545508    -0.67200
Ni7        Ni  0.69387648  0.55147778  0.18709568     1.34900
C8          C  0.65665277  0.49228474  0.30817577     0.83900
O9          O  0.68624834  0.49127179  0.13466767    -0.80200
O10         O  0.69049014  0.53467906  0.12311648    -0.90400
C11         C  0.68775948  0.43273422  0.21739620     0.83500
O12         O  0.71435649  0.53807430  0.18650541    -0.68600
O13         O  0.68768304  0.47309664  0.37556196    -0.87900
C14         C  0.71936494  0.51456008  0.18408576     0.84300
C15         C  0.68786297  0.51142454  0.10641265     1.05900
H16         H  0.70345673  0.48481217  0.28358250     0.37700
O17         O  0.69258101  0.48560357  0.27675077    -1.10600
O18         O  0.66419626  0.51280815  0.29607660    -0.67200
Ni19       Ni  0.68588607  0.52068021  0.29126134     1.26300
O20         O  0.71116360  0.49443255  0.19377144    -0.67500
O21         O  0.68765299  0.51698913  0.36254916    -0.79800
C22         C  0.68924023  0.57505981  0.28595062     0.83700
O23         O  0.68055845  0.55686390  0.30199010    -0.66900
Ni24       Ni  0.68341470  0.45699101  0.31218553     1.27400
Ni25       Ni  0.68967573  0.48752422  0.20547430     1.26100
H26         H  0.67312942  0.52474557  0.21190620     0.38200
O27         O  0.70092400  0.57021787  0.74281558    -0.81700
O28         O  0.69537238  0.45249202  0.69505786    -0.66400
O29         O  0.68467727  0.52432874  0.71863781    -1.13000
C30         C  0.68858358  0.49960566  0.88962158     1.05200
O31         O  0.67743760  0.44112518  0.74868883    -0.79600
O32         O  0.66164954  0.47427823  0.80687673    -0.67200
Ni33       Ni  0.69402664  0.55237455  0.68290347     1.34900
C34         C  0.65693533  0.49787011  0.80542580     0.83900
O35         O  0.68842780  0.49300976  0.63270334    -0.80200
O36         O  0.68748032  0.53714484  0.62092171    -0.90400
C37         C  0.68763152  0.43478048  0.71693259     0.83500
O38         O  0.71388266  0.53699695  0.67107797    -0.68600
O39         O  0.68495910  0.47652302  0.87412962    -0.87900
C40         C  0.71969661  0.51413498  0.67667908     0.84300
C41         C  0.68746620  0.51343848  0.60469414     1.05900
H42         H  0.70331413  0.48418076  0.78382944     0.37700
O43         O  0.69260169  0.48668091  0.77580193    -1.10600
O44         O  0.66575798  0.51760548  0.79935335    -0.67200
Ni45       Ni  0.68765693  0.52240579  0.78959829     1.26300
O46         O  0.71228794  0.49547295  0.69740194    -0.67500
O47         O  0.69093149  0.51901965  0.86032705    -0.79800
C48         C  0.69204083  0.57631527  0.77899885     0.83700
O49         O  0.68373503  0.55890857  0.79935216    -0.66900
Ni50       Ni  0.68165926  0.45970312  0.81003494     1.27400
Ni51       Ni  0.69048838  0.48899416  0.70431789     1.26100
H52         H  0.67380790  0.52570894  0.71200234     0.38200
O53         O  0.55061270  0.57202098  0.39972885    -0.81700
O54         O  0.55474863  0.45115274  0.44918772    -0.66400
O55         O  0.56475880  0.52322242  0.42237574    -1.13000
C56         C  0.56312986  0.50224686  0.25238232     1.05200
O57         O  0.56343199  0.43366008  0.37758148    -0.79600
O58         O  0.58463661  0.47006409  0.35563532    -0.67200
Ni59       Ni  0.55533177  0.55151691  0.45848267     1.34900
C60         C  0.59093488  0.49203486  0.34671041     0.83900
O61         O  0.56404377  0.49120686  0.50697990    -0.80200
O62         O  0.55923115  0.53427186  0.52069013    -0.90400
C63         C  0.55876362  0.43155060  0.42224285     0.83500
O64         O  0.53479935  0.53851515  0.46081920    -0.68600
O65         O  0.56886283  0.48086550  0.26827389    -0.87900
C66         C  0.52992356  0.51507680  0.46588566     0.84300
C67         C  0.56219988  0.51106979  0.53609207     1.05900
H68         H  0.54395046  0.48443377  0.35988130     0.37700
O69         O  0.55484180  0.48604361  0.36554625    -1.10600
O70         O  0.58298001  0.51304555  0.34063124    -0.67200
Ni71       Ni  0.56127685  0.52153584  0.35213655     1.26300
O72         O  0.53794139  0.49475838  0.45435982    -0.67500
O73         O  0.55729587  0.51922689  0.28185391    -0.79800
C74         C  0.55888698  0.57588788  0.36121661     0.83700
O75         O  0.56685902  0.55744619  0.34230145    -0.66900
Ni76       Ni  0.56559213  0.45964395  0.32719304     1.27400
Ni77       Ni  0.55926958  0.48774259  0.43691397     1.26100
H78         H  0.57583313  0.52483806  0.42843565     0.38200
O79         O  0.54760581  0.57044158  0.89812199    -0.81700
O80         O  0.55589807  0.45240509  0.94670423    -0.66400
O81         O  0.56442746  0.52515648  0.92261620    -1.13000
C82         C  0.55945005  0.50096967  0.75118936     1.05200
O83         O  0.57166961  0.44024516  0.88574533    -0.79600
O84         O  0.58676925  0.47461301  0.82969967    -0.67200
Ni85       Ni  0.55417917  0.55274786  0.95812532     1.34900
C86         C  0.59159835  0.49809042  0.83262064     0.83900
O87         O  0.56282050  0.49385375  0.00866889    -0.80200
O88         O  0.56011379  0.53786983  0.02075990    -0.90400
C89         C  0.56325027  0.43464880  0.92287159     0.83500
O90         O  0.53451015  0.53659455  0.96661312    -0.68600
O91         O  0.56288603  0.47777054  0.76544386    -0.87900
C92         C  0.52988488  0.51280228  0.96506562     0.84300
C93         C  0.56202144  0.51447163  0.03688806     1.05900
H94         H  0.54559054  0.48477033  0.85944990     0.37700
O95         O  0.55642634  0.48713309  0.86558645    -1.10600
O96         O  0.58292882  0.51792026  0.84083037    -0.67200
Ni97       Ni  0.56112019  0.52305173  0.85187374     1.26300
O98         O  0.53806526  0.49400129  0.94801390    -0.67500
O99         O  0.55738572  0.52020761  0.78128938    -0.79800
C100        C  0.55661981  0.57667197  0.86264151     0.83700
O101        O  0.56513513  0.55943503  0.84244496    -0.66900
Ni102      Ni  0.56670278  0.46033037  0.82770461     1.27400
Ni103      Ni  0.55974810  0.48937167  0.93696556     1.26100
H104        H  0.57525653  0.52756864  0.92875884     0.38200
O105        O  0.70032850  0.68443839  0.41565606    -0.81700
O106        O  0.69763833  0.80409883  0.45981857    -0.66400
O107        O  0.68538639  0.73277828  0.43742823    -1.13000
C108        C  0.68945859  0.75608500  0.26606893     1.05200
O109        O  0.68035781  0.81726220  0.40497744    -0.79600
O110        O  0.66322678  0.78326695  0.34961743    -0.67200
Ni111      Ni  0.69415367  0.70441159  0.47451716     1.34900
C112        C  0.65835611  0.75966865  0.34787885     0.83900
O113        O  0.68938268  0.76499509  0.52288999    -0.80200
O114        O  0.68833832  0.72119478  0.53635969    -0.90400
C115        C  0.69076878  0.82250816  0.43681812     0.83500
O116        O  0.71454806  0.71809714  0.48314584    -0.68600
O117        O  0.68619481  0.77938040  0.28116002    -0.87900
C118        C  0.72045905  0.74086057  0.47777801     0.84300
C119        C  0.68852752  0.74502302  0.55201022     1.05900
H120        H  0.70488991  0.77165045  0.37198033     0.37700
O121        O  0.69412414  0.76968225  0.37969542    -1.10600
O122        O  0.66701862  0.73974065  0.35465007    -0.67200
Ni123      Ni  0.68870297  0.73402508  0.36641073     1.26300
O124        O  0.71318963  0.76039718  0.45966315    -0.67500
O125        O  0.69205699  0.73678368  0.29551621    -0.79800
C126        C  0.69191399  0.67943262  0.37767837     0.83700
O127        O  0.68425233  0.69762878  0.35688446    -0.66900
Ni128      Ni  0.68356833  0.79701943  0.34473020     1.27400
Ni129      Ni  0.69171898  0.76805103  0.45121868     1.26100
H130        H  0.67445824  0.73206057  0.44356895     0.38200
O131        O  0.69846447  0.68363847  0.90697205    -0.81700
O132        O  0.68987142  0.80339881  0.96711205    -0.66400
O133        O  0.68362326  0.73055158  0.93589721    -1.13000
C134        C  0.69014455  0.76233769  0.76733911     1.05200
O135        O  0.67352915  0.81292010  0.90727832    -0.79600
O136        O  0.66290344  0.78288124  0.83129691    -0.67200
Ni137      Ni  0.69522645  0.70373362  0.96815469     1.34900
C138        C  0.65695113  0.76069706  0.84150808     0.83900
O139        O  0.68275790  0.76110885  0.02318667    -0.80200
O140        O  0.69264294  0.72039100  0.03329513    -0.90400
C141        C  0.68184741  0.82026256  0.94370255     0.83500
O142        O  0.71482736  0.72000916  0.96061116    -0.68600
O143        O  0.69074837  0.78546309  0.78607923    -0.87900
C144        C  0.71833632  0.74360695  0.97180970     0.84300
C145        C  0.68734232  0.74212850  0.05071606     1.05900
H146        H  0.70246249  0.77188528  0.87942860     0.37700
O147        O  0.69151436  0.77016041  0.88360337    -1.10600
O148        O  0.66451555  0.74164434  0.86008208    -0.67200
Ni149      Ni  0.68621113  0.73527752  0.86506982     1.26300
O150        O  0.70869751  0.76254348  0.96988670    -0.67500
O151        O  0.68814377  0.74158402  0.79383446    -0.79800
C152        C  0.69015268  0.68067476  0.86793501     0.83700
O153        O  0.68196523  0.69925824  0.85053877    -0.66900
Ni154      Ni  0.68235311  0.79843820  0.84761286     1.27400
Ni155      Ni  0.68715790  0.76647782  0.95372945     1.26100
H156        H  0.67297983  0.72671959  0.94288617     0.38200
O157        O  0.54867501  0.68620323  0.23748525    -0.81700
O158        O  0.55560285  0.80563234  0.19678111    -0.66400
O159        O  0.56481165  0.73271103  0.21546611    -1.13000
C160        C  0.56307029  0.75617979  0.38823776     1.05200
O161        O  0.57426044  0.81492148  0.24969578    -0.79600
O162        O  0.58959289  0.77978877  0.30528481    -0.67200
Ni163      Ni  0.55495337  0.70548982  0.17841771     1.34900
C164        C  0.59398061  0.75598022  0.30138856     0.83900
O165        O  0.56096989  0.76572551  0.13217345    -0.80200
O166        O  0.56074354  0.72198891  0.11661908    -0.90400
C167        C  0.56460180  0.82226430  0.21697777     0.83500
O168        O  0.53506845  0.72134066  0.17155816    -0.68600
O169        O  0.56628102  0.77940514  0.37336761    -0.87900
C170        C  0.52982418  0.74459511  0.17775175     0.84300
C171        C  0.56094498  0.74597451  0.10219547     1.05900
H172        H  0.54754036  0.77294706  0.28461781     0.37700
O173        O  0.55814584  0.77004243  0.27551089    -1.10600
O174        O  0.58475895  0.73694678  0.29405070    -0.67200
Ni175      Ni  0.56269656  0.73389971  0.28696136     1.26300
O176        O  0.53770016  0.76331918  0.19693830    -0.67500
O177        O  0.56067110  0.73672151  0.35858587    -0.79800
C178        C  0.55748372  0.68014268  0.27386116     0.83700
O179        O  0.56604848  0.69722168  0.29431132    -0.66900
Ni180      Ni  0.56986588  0.79603287  0.30996737     1.27400
Ni181      Ni  0.55961169  0.76862189  0.20379217     1.26100
H182        H  0.57559206  0.73096276  0.20764549     0.38200
O183        O  0.54800485  0.68765311  0.74703893    -0.81700
O184        O  0.55651277  0.80527762  0.69153032    -0.66400
O185        O  0.56392341  0.73248603  0.71788926    -1.13000
C186        C  0.55896952  0.76257367  0.88804278     1.05200
O187        O  0.57409554  0.81376032  0.74808575    -0.79600
O188        O  0.58602958  0.78331989  0.82045647    -0.67200
Ni189      Ni  0.55316390  0.70490689  0.68507228     1.34900
C190        C  0.59168742  0.76087533  0.80984986     0.83900
O191        O  0.56219346  0.76314001  0.63119977    -0.80200
O192        O  0.55773608  0.71957789  0.62054367    -0.90400
C193        C  0.56503951  0.82175270  0.71428857     0.83500
O194        O  0.53340108  0.72110757  0.68211896    -0.68600
O195        O  0.55885079  0.78583424  0.87031655    -0.87900
C196        C  0.52910481  0.74508894  0.68206256     0.84300
C197        C  0.56045903  0.74260708  0.60354560     1.05900
H198        H  0.54586959  0.77326293  0.77984430     0.37700
O199        O  0.55671741  0.77133058  0.77330342    -1.10600
O200        O  0.58376913  0.74179883  0.79295634    -0.67200
Ni201      Ni  0.56195502  0.73621204  0.78920261     1.26300
O202        O  0.53791565  0.76419024  0.69316630    -0.67500
O203        O  0.56037306  0.74170116  0.86097642    -0.79800
C204        C  0.55722084  0.68239327  0.78271975     0.83700
O205        O  0.56603595  0.69993724  0.80068797    -0.66900
Ni206      Ni  0.56636800  0.79916768  0.80848974     1.27400
Ni207      Ni  0.55963889  0.76823136  0.70229325     1.26100
H208        H  0.57459283  0.72953960  0.70990112     0.38200
O209        O  0.70145118  0.06943673  0.49383340    -0.81700
O210        O  0.69996112  0.95196425  0.44861889    -0.66400
O211        O  0.68602450  0.02243557  0.47093594    -1.13000
C212        C  0.68809290  0.99674949  0.64038822     1.05200
O213        O  0.68031195  0.94014304  0.49464232    -0.79600
O214        O  0.66239944  0.97265675  0.54876598    -0.67200
Ni215      Ni  0.69439562  0.05110210  0.43457709     1.34900
C216        C  0.65792874  0.99630039  0.55381557     0.83900
O217        O  0.69307643  0.99203219  0.38492967    -0.80200
O218        O  0.68787238  0.03503816  0.37281884    -0.90400
C219        C  0.69192620  0.93390728  0.46844941     0.83500
O220        O  0.71451949  0.03724861  0.42261314    -0.68600
O221        O  0.68368440  0.97451304  0.62272756    -0.87900
C222        C  0.72148824  0.01602510  0.43352216     0.84300
C223        C  0.69041903  0.01174845  0.35629455     1.05900
H224        H  0.70451851  0.98231675  0.53871106     0.37700
O225        O  0.69402741  0.98510527  0.52823870    -1.10600
O226        O  0.66702164  0.01591450  0.55247667    -0.67200
Ni227      Ni  0.68890698  0.02055254  0.54213234     1.26300
O228        O  0.71474385  0.99750137  0.45664071    -0.67500
O229        O  0.69198533  0.01621023  0.61280159    -0.79800
C230        C  0.69317497  0.07478619  0.53187531     0.83700
O231        O  0.68506075  0.05713874  0.55248056    -0.66900
Ni232      Ni  0.68227041  0.95799851  0.55778628     1.27400
Ni233      Ni  0.69340129  0.98786862  0.45687482     1.26100
H234        H  0.67515742  0.02243280  0.46397160     0.38200
O235        O  0.70383293  0.06769237  0.99380352    -0.81700
O236        O  0.69183981  0.94808961  0.94576338    -0.66400
O237        O  0.68767512  0.02181879  0.97029931    -1.13000
C238        C  0.69381848  0.99373746  0.14118719     1.05200
O239        O  0.67527596  0.94202633  0.00642082    -0.79600
O240        O  0.66610624  0.97433073  0.07935553    -0.67200
Ni241      Ni  0.69913464  0.04709087  0.93432934     1.34900
C242        C  0.66060008  0.99625047  0.06522499     0.83900
O243        O  0.68493308  0.98952784  0.88673471    -0.80200
O244        O  0.69494323  0.02942117  0.87150317    -0.90400
C245        C  0.68325112  0.93286786  0.97081690     0.83500
O246        O  0.71843229  0.02960858  0.93792442    -0.68600
O247        O  0.69418825  0.97033717  0.12375331    -0.87900
C248        C  0.72175409  0.00534887  0.93236907     0.84300
C249        C  0.68867850  0.00794957  0.85679928     1.05900
H250        H  0.70584852  0.98055923  0.02963393     0.37700
O251        O  0.69492694  0.98313766  0.02573707    -1.10600
O252        O  0.66866535  0.01430175  0.04586151    -0.67200
Ni253      Ni  0.69044710  0.01882349  0.04120666     1.26300
O254        O  0.71183004  0.98715298  0.93836417    -0.67500
O255        O  0.69223094  0.01413337  0.11324676    -0.79800
C256        C  0.69513858  0.07294421  0.03109001     0.83700
O257        O  0.68692689  0.05540982  0.05175947    -0.66900
Ni258      Ni  0.68500418  0.95672066  0.06416998     1.27400
Ni259      Ni  0.69019380  0.98542301  0.95579070     1.26100
H260        H  0.67708551  0.02613174  0.96344741     0.38200
O261        O  0.55078376  0.06841603  0.14265655    -0.81700
O262        O  0.55789277  0.95114546  0.19818533    -0.66400
O263        O  0.56679500  0.02319260  0.17066524    -1.13000
C264        C  0.56276532  0.99265151  0.00092003     1.05200
O265        O  0.57626395  0.94105087  0.14526273    -0.79600
O266        O  0.59013714  0.97183134  0.07788853    -0.67200
Ni267      Ni  0.55676485  0.05139034  0.20435837     1.34900
C268        C  0.59509457  0.99511849  0.08427686     0.83900
O269        O  0.56423183  0.99287081  0.25769607    -0.80200
O270        O  0.56230591  0.03695218  0.26839984    -0.90400
C271        C  0.56646676  0.93402050  0.17758286     0.83500
O272        O  0.53686644  0.03587571  0.21230209    -0.68600
O273        O  0.56459548  0.96959189  0.01875719    -0.87900
C274        C  0.53200136  0.01221525  0.21083496     0.84300
C275        C  0.56369797  0.01352987  0.28536594     1.05900
H276        H  0.54883722  0.98170535  0.10814013     0.37700
O277        O  0.55958901  0.98415997  0.11560560    -1.10600
O278        O  0.58647240  0.01466290  0.09437771    -0.67200
Ni279      Ni  0.56456743  0.01948313  0.09934106     1.26300
O280        O  0.54013462  0.99297501  0.19515433    -0.67500
O281        O  0.56259867  0.01370802  0.02787944    -0.79800
C282        C  0.55983340  0.07379945  0.10654795     0.83700
O283        O  0.56831669  0.05601282  0.08734419    -0.66900
Ni284      Ni  0.57024171  0.95620082  0.08296721     1.27400
Ni285      Ni  0.56190725  0.98774622  0.18676706     1.26100
H286        H  0.57755302  0.02542813  0.17824435     0.38200
O287        O  0.54845544  0.06919952  0.64980837    -0.81700
O288        O  0.55518148  0.95029408  0.69349578    -0.66400
O289        O  0.56425535  0.02289423  0.67307461    -1.13000
C290        C  0.56244252  0.99785732  0.50049176     1.05200
O291        O  0.57365952  0.94048253  0.64023743    -0.79600
O292        O  0.58843996  0.97446229  0.58154777    -0.67200
Ni293      Ni  0.55455576  0.05046840  0.70964755     1.34900
C294        C  0.59303541  0.99800141  0.58733228     0.83900
O295        O  0.56097655  0.99049785  0.75702121    -0.80200
O296        O  0.56018323  0.03430791  0.77213201    -0.90400
C297        C  0.56408833  0.93347701  0.67330995     0.83500
O298        O  0.53472069  0.03493220  0.71668876    -0.68600
O299        O  0.56450222  0.97440369  0.51611915    -0.87900
C300        C  0.52949118  0.01165658  0.71154586     0.84300
C301        C  0.56098849  0.01036736  0.78675598     1.05900
H302        H  0.54670338  0.98273605  0.60535272     0.37700
O303        O  0.55736910  0.98528681  0.61392891    -1.10600
O304        O  0.58411087  0.01727650  0.59601840    -0.67200
Ni305      Ni  0.56220868  0.02117788  0.60149818     1.26300
O306        O  0.53732442  0.99270577  0.69292690    -0.67500
O307        O  0.56069386  0.01779678  0.52961767    -0.79800
C308        C  0.55753784  0.07504613  0.61408824     0.83700
O309        O  0.56589810  0.05767437  0.59343738    -0.66900
Ni310      Ni  0.56864421  0.95855253  0.57965248     1.27400
Ni311      Ni  0.55916556  0.98716715  0.68553084     1.26100
H312        H  0.57502341  0.02461705  0.68098336     0.38200
O313        O  0.70284066  0.18297108  0.15299492    -0.81700
O314        O  0.69722861  0.30313919  0.20505796    -0.66400
O315        O  0.68813987  0.23031574  0.17950800    -1.13000
C316        C  0.68994164  0.25878155  0.00842330     1.05200
O317        O  0.67866774  0.31157077  0.15304902    -0.79600
O318        O  0.66442857  0.28073998  0.08770101    -0.67200
Ni319      Ni  0.69819285  0.20238975  0.21375360     1.34900
C320        C  0.65935570  0.25759487  0.09414556     0.83900
O321        O  0.69048197  0.26240910  0.26516332    -0.80200
O322        O  0.69409250  0.21884368  0.27773862    -0.90400
C323        C  0.68832262  0.31980955  0.18470130     0.83500
O324        O  0.71845430  0.21674205  0.21520794    -0.68600
O325        O  0.68897749  0.28217655  0.02581936    -0.87900
C326        C  0.72333600  0.24036145  0.21568288     0.84300
C327        C  0.69173418  0.24235674  0.29354262     1.05900
H328        H  0.70600621  0.27075541  0.11492569     0.37700
O329        O  0.69526934  0.26854747  0.12295575    -1.10600
O330        O  0.66789354  0.23800957  0.10437840    -0.67200
Ni331      Ni  0.68983255  0.23311797  0.10782718     1.26300
O332        O  0.71493181  0.26018342  0.20437856    -0.67500
O333        O  0.69083894  0.23808205  0.03589636    -0.79800
C334        C  0.69424476  0.17854615  0.11517829     0.83700
O335        O  0.68585859  0.19658082  0.09668605    -0.66900
Ni336      Ni  0.68431962  0.29616609  0.09059648     1.27400
Ni337      Ni  0.69314105  0.26611658  0.19447071     1.26100
H338        H  0.67742422  0.22826862  0.18783320     0.38200
O339        O  0.70090686  0.18531778  0.65492079    -0.81700
O340        O  0.69539557  0.30528861  0.70121050    -0.66400
O341        O  0.68519223  0.23275664  0.67897985    -1.13000
C342        C  0.69041637  0.25633031  0.50771111     1.05200
O343        O  0.67858319  0.31653174  0.64403556    -0.79600
O344        O  0.66381252  0.28354359  0.58416126    -0.67200
Ni345      Ni  0.69509263  0.20501329  0.71452648     1.34900
C346        C  0.65843415  0.26050827  0.58848245     0.83900
O347        O  0.68752413  0.26546264  0.76385585    -0.80200
O348        O  0.68987205  0.22163030  0.77700664    -0.90400
C349        C  0.68823078  0.32303755  0.67723964     0.83500
O350        O  0.71523568  0.21992233  0.71928761    -0.68600
O351        O  0.68830616  0.28015280  0.52189226    -0.87900
C352        C  0.72017758  0.24347090  0.71647472     0.84300
C353        C  0.68825678  0.24532280  0.79265605     1.05900
H354        H  0.70448115  0.27150533  0.61480107     0.37700
O355        O  0.69362463  0.26987354  0.62135727    -1.10600
O356        O  0.66655253  0.24037197  0.59885244    -0.67200
Ni357      Ni  0.68819652  0.23416801  0.60821181     1.26300
O358        O  0.71195897  0.26275684  0.70248791    -0.67500
O359        O  0.69121751  0.23674139  0.53739146    -0.79800
C360        C  0.69230127  0.18012598  0.61754958     0.83700
O361        O  0.68371252  0.19772729  0.59886978    -0.66900
Ni362      Ni  0.68392569  0.29736798  0.58457063     1.27400
Ni363      Ni  0.69048401  0.26859477  0.69246813     1.26100
H364        H  0.67436078  0.23092521  0.68579771     0.38200
O365        O  0.55354845  0.18228958  0.48856113    -0.81700
O366        O  0.55694631  0.30322157  0.44080978    -0.66400
O367        O  0.56728941  0.23106196  0.46620725    -1.13000
C368        C  0.56208445  0.25840585  0.63713611     1.05200
O369        O  0.57395937  0.31440673  0.49726887    -0.79600
O370        O  0.58846313  0.28245826  0.56003050    -0.67200
Ni371      Ni  0.55805602  0.20283680  0.42974000     1.34900
C372        C  0.59370391  0.25924064  0.55504826     0.83900
O373        O  0.56604238  0.26322558  0.38090454    -0.80200
O374        O  0.56182887  0.22002736  0.36700476    -0.90400
C375        C  0.56439850  0.32096415  0.46395699     0.83500
O376        O  0.53755051  0.21601821  0.42854818    -0.68600
O377        O  0.56350228  0.28182938  0.62090326    -0.87900
C378        C  0.53251204  0.23952406  0.42641829     0.84300
C379        C  0.56449137  0.24337384  0.35175977     1.05900
H380        H  0.54743428  0.27086624  0.52785956     0.37700
O381        O  0.55832497  0.26901682  0.52205369    -1.10600
O382        O  0.58546363  0.23934823  0.54553413    -0.67200
Ni383      Ni  0.56394457  0.23367458  0.53729926     1.26300
O384        O  0.54060688  0.25972561  0.43710491    -0.67500
O385        O  0.56127400  0.23800598  0.60874204    -0.79800
C386        C  0.56103586  0.17916433  0.52909738     0.83700
O387        O  0.56865133  0.19769104  0.54890279    -0.66900
Ni388      Ni  0.56829177  0.29699719  0.55754388     1.27400
Ni389      Ni  0.56195512  0.26668943  0.45119160     1.26100
H390        H  0.57816159  0.22936182  0.46000480     0.38200
O391        O  0.55147717  0.18582039  0.99101226    -0.81700
O392        O  0.55710157  0.30521847  0.94285754    -0.66400
O393        O  0.56726107  0.23271366  0.96606682    -1.13000
C394        C  0.56305789  0.25663151  0.13723876     1.05200
O395        O  0.57319506  0.31828079  0.00203274    -0.79600
O396        O  0.58939806  0.28387087  0.05628950    -0.67200
Ni397      Ni  0.55720346  0.20475681  0.93099933     1.34900
C398        C  0.59447956  0.26040891  0.05549009     0.83900
O399        O  0.56429629  0.26450732  0.88087599    -0.80200
O400        O  0.56217834  0.22056654  0.86806484    -0.90400
C401        C  0.56435149  0.32341117  0.96561233     0.83500
O402        O  0.53715137  0.21994940  0.92591714    -0.68600
O403        O  0.56604977  0.27998179  0.12286665    -0.87900
C404        C  0.53214592  0.24350921  0.92854180     0.84300
C405        C  0.56348362  0.24416377  0.85223551     1.05900
H406        H  0.54818888  0.27236897  0.03070343     0.37700
O407        O  0.55900887  0.27037918  0.02367705    -1.10600
O408        O  0.58601233  0.24036074  0.04758238    -0.67200
Ni409      Ni  0.56430479  0.23452368  0.03688305     1.26300
O410        O  0.54026553  0.26280975  0.94324407    -0.67500
O411        O  0.56098343  0.23727424  0.10746573    -0.79800
C412        C  0.56037297  0.18042515  0.02743323     0.83700
O413        O  0.56886884  0.19808981  0.04631120    -0.66900
Ni414      Ni  0.56914116  0.29764691  0.06033669     1.27400
Ni415      Ni  0.56183097  0.26846016  0.95236033     1.26100
H416        H  0.57807926  0.23080997  0.95921080     0.38200
O417        O  0.92816419  0.56540091  0.37844178    -0.81700
O418        O  0.93833280  0.44892948  0.42821342    -0.66400
O419        O  0.94504292  0.52171355  0.40630448    -1.13000
C420        C  0.94188995  0.49442561  0.23442466     1.05200
O421        O  0.95650007  0.43832623  0.37375115    -0.79600
O422        O  0.96909020  0.47284976  0.30484806    -0.67200
Ni423      Ni  0.93280454  0.54761947  0.43959382     1.34900
C424        C  0.97381512  0.49641325  0.31025066     0.83900
O425        O  0.94238600  0.48929511  0.49086305    -0.80200
O426        O  0.93647085  0.53199399  0.50381879    -0.90400
C427        C  0.94752534  0.43221185  0.40960415     0.83500
O428        O  0.91341535  0.53042286  0.43510037    -0.68600
O429        O  0.94350375  0.47079089  0.25016498    -0.87900
C430        C  0.90953395  0.50640977  0.43092977     0.84300
C431        C  0.93951350  0.50889192  0.51971787     1.05900
H432        H  0.92853727  0.48064669  0.33976488     0.37700
O433        O  0.93923148  0.48319234  0.34794532    -1.10600
O434        O  0.96550561  0.51488874  0.32829389    -0.67200
Ni435      Ni  0.94354737  0.51918291  0.33456426     1.26300
O436        O  0.91907782  0.48779306  0.42430258    -0.67500
O437        O  0.94178490  0.51489899  0.26286267    -0.79800
C438        C  0.93804119  0.57300475  0.34687066     0.83700
O439        O  0.94697658  0.55639651  0.32601430    -0.66900
Ni440      Ni  0.94973574  0.45584944  0.31304501     1.27400
Ni441      Ni  0.94107729  0.48554869  0.41929179     1.26100
H442        H  0.95558999  0.52518592  0.41530039     0.38200
O443        O  0.92645148  0.56688079  0.87884529    -0.81700
O444        O  0.93297030  0.44919592  0.92845222    -0.66400
O445        O  0.94212085  0.52158878  0.90644059    -1.13000
C446        C  0.93840866  0.49409944  0.73480042     1.05200
O447        O  0.95135809  0.43865355  0.87547877    -0.79600
O448        O  0.96460131  0.47097258  0.80430743    -0.67200
Ni449      Ni  0.93097506  0.54884571  0.94017121     1.34900
C450        C  0.97001510  0.49417033  0.80812430     0.83900
O451        O  0.93879619  0.48969199  0.99128680    -0.80200
O452        O  0.93476799  0.53312147  0.00441361    -0.90400
C453        C  0.94195462  0.43208667  0.90974372     0.83500
O454        O  0.91101669  0.53354768  0.93812890    -0.68600
O455        O  0.93887557  0.47043389  0.75115403    -0.87900
C456        C  0.90628012  0.51001540  0.93354210     0.84300
C457        C  0.93729089  0.50977568  0.02013698     1.05900
H458        H  0.92424451  0.48203442  0.84025056     0.37700
O459        O  0.93500245  0.48369759  0.84839524    -1.10600
O460        O  0.96238887  0.51324186  0.82734491    -0.67200
Ni461      Ni  0.94046637  0.51912641  0.83464226     1.26300
O462        O  0.91509518  0.49048596  0.92547341    -0.67500
O463        O  0.93865969  0.51473522  0.76289067    -0.79800
C464        C  0.93645427  0.57332312  0.84662576     0.83700
O465        O  0.94486079  0.55589423  0.82590810    -0.66900
Ni466      Ni  0.94484773  0.45557994  0.81420830     1.27400
Ni467      Ni  0.93696785  0.48583846  0.91972837     1.26100
H468        H  0.95279230  0.52393620  0.91511305     0.38200
O469        O  0.82213898  0.56343775  0.03170823    -0.81700
O470        O  0.81632088  0.44720321  0.98247692    -0.66400
O471        O  0.80596474  0.51876917  0.00789147    -1.13000
C472        C  0.81161747  0.49395794  0.17769260     1.05200
O473        O  0.79983122  0.43274922  0.03935994    -0.79600
O474        O  0.78414421  0.46777834  0.09927357    -0.67200
Ni475      Ni  0.81585006  0.54627876  0.97172840     1.34900
C476        C  0.77963533  0.49156109  0.10281270     0.83900
O477        O  0.80885222  0.48687203  0.92211188    -0.80200
O478        O  0.81077064  0.53057873  0.90856615    -0.90400
C479        C  0.80812406  0.42900877  0.00058283     0.83500
O480        O  0.83588996  0.53193713  0.96740219    -0.68600
O481        O  0.80825017  0.47079312  0.16216130    -0.87900
C482        C  0.84140309  0.50896554  0.97185401     0.84300
C483        C  0.80936686  0.50685437  0.89313601     1.05900
H484        H  0.82538349  0.47883830  0.07093419     0.37700
O485        O  0.81457982  0.48109404  0.06414025    -1.10600
O486        O  0.78818213  0.51128698  0.09332411    -0.67200
Ni487      Ni  0.80960323  0.51706591  0.07879299     1.26300
O488        O  0.83336505  0.48917659  0.98445560    -0.67500
O489        O  0.81367286  0.51370571  0.14892547    -0.79800
C490        C  0.81288257  0.57101938  0.06516568     0.83700
O491        O  0.80509730  0.55404554  0.08894331    -0.66900
Ni492      Ni  0.80439973  0.45341333  0.09910681     1.27400
Ni493      Ni  0.81163084  0.48332464  0.99326350     1.26100
H494        H  0.79507296  0.52051787  0.00207859     0.38200
O495        O  0.82739777  0.56073158  0.53374193    -0.81700
O496        O  0.81830015  0.44661781  0.48318616    -0.66400
O497        O  0.80989799  0.51850614  0.50687531    -1.13000
C498        C  0.81113883  0.49417522  0.67797969     1.05200
O499        O  0.80091372  0.43317115  0.53822381    -0.79600
O500        O  0.78482172  0.47038941  0.59173003    -0.67200
Ni501      Ni  0.82096044  0.54505036  0.47218749     1.34900
C502        C  0.78058426  0.49440648  0.59141645     0.83900
O503        O  0.81205995  0.48684915  0.42209721    -0.80200
O504        O  0.81527884  0.53035734  0.40855051    -0.90400
C505        C  0.80975929  0.42890059  0.50099534     0.83500
O506        O  0.84044423  0.52860037  0.46654628    -0.68600
O507        O  0.80730310  0.47132496  0.66214229    -0.87900
C508        C  0.84516190  0.50513678  0.47160950     0.84300
C509        C  0.81284350  0.50684257  0.39309720     1.05900
H510        H  0.82708252  0.47701030  0.57323791     0.37700
O511        O  0.81645132  0.48024868  0.56479236    -1.10600
O512        O  0.79017341  0.51305918  0.58599927    -0.67200
Ni513      Ni  0.81214242  0.51652108  0.57819787     1.26300
O514        O  0.83651541  0.48646876  0.48609097    -0.67500
O515        O  0.81442145  0.51341521  0.64932241    -0.79800
C516        C  0.81746886  0.56930926  0.56428543     0.83700
O517        O  0.80874685  0.55336495  0.58680781    -0.66900
Ni518      Ni  0.80452846  0.45403883  0.59827245     1.27400
Ni519      Ni  0.81447758  0.48283818  0.49335214     1.26100
H520        H  0.79919363  0.52124308  0.49901493     0.38200
O521        O  0.92530088  0.19296164  0.02625057    -0.81700
O522        O  0.93125161  0.30809999  0.96815586    -0.66400
O523        O  0.94100596  0.23639301  0.99365635    -1.13000
C524        C  0.94168138  0.26660822  0.16386411     1.05200
O525        O  0.95116264  0.31911848  0.01499188    -0.79600
O526        O  0.96686894  0.28768414  0.07976795    -0.67200
Ni527      Ni  0.92962245  0.20867373  0.96272606     1.34900
C528        C  0.97126346  0.26382841  0.08096372     0.83900
O529        O  0.93526316  0.26658426  0.90683797    -0.80200
O530        O  0.93326545  0.22254671  0.89693969    -0.90400
C531        C  0.94088962  0.32506734  0.98309157     0.83500
O532        O  0.90978272  0.22448825  0.96348908    -0.68600
O533        O  0.94363753  0.28962086  0.14540279    -0.87900
C534        C  0.90462744  0.24750708  0.97201187     0.84300
C535        C  0.93452704  0.24582598  0.87941291     1.05900
H536        H  0.92499272  0.27840663  0.06161575     0.37700
O537        O  0.93540352  0.27554281  0.05053270    -1.10600
O538        O  0.96241274  0.24452898  0.07050562    -0.67200
Ni539      Ni  0.94037261  0.24001516  0.06578110     1.26300
O540        O  0.91334968  0.26705357  0.98085078    -0.67500
O541        O  0.93951960  0.24574566  0.13732481    -0.79800
C542        C  0.93591670  0.18584868  0.05572286     0.83700
O543        O  0.94440800  0.20312429  0.07636116    -0.66900
Ni544      Ni  0.94698748  0.30341442  0.07919842     1.27400
Ni545      Ni  0.93538016  0.27176274  0.97884298     1.26100
H546        H  0.95158158  0.23405090  0.98356167     0.38200
O547        O  0.92927225  0.19159658  0.50513516    -0.81700
O548        O  0.93804780  0.31056684  0.47301822    -0.66400
O549        O  0.94592093  0.23774627  0.49193653    -1.13000
C550        C  0.93779428  0.25675931  0.66413010     1.05200
O551        O  0.95131974  0.32395336  0.53944121    -0.79600
O552        O  0.96622528  0.28589524  0.59127734    -0.67200
Ni553      Ni  0.93641614  0.21194293  0.44970799     1.34900
C554        C  0.97079888  0.26211444  0.59185975     0.83900
O555        O  0.94670240  0.27246839  0.41072188    -0.80200
O556        O  0.94248866  0.23002272  0.39013186    -0.90400
C557        C  0.94505865  0.32837883  0.49724337     0.83500
O558        O  0.91654231  0.22719697  0.44466427    -0.68600
O559        O  0.94156202  0.28025180  0.65270644    -0.87900
C560        C  0.91160316  0.25063006  0.44883038     0.84300
C561        C  0.94557793  0.25379309  0.37865148     1.05900
H562        H  0.92561141  0.27653272  0.55470372     0.37700
O563        O  0.93653590  0.27420575  0.55094166    -1.10600
O564        O  0.96222035  0.24262572  0.58042839    -0.67200
Ni565      Ni  0.94096934  0.23762146  0.56196484     1.26300
O566        O  0.92001020  0.26974361  0.46353098    -0.67500
O567        O  0.93587171  0.23834984  0.63202273    -0.79800
C568        C  0.93731132  0.18410339  0.54197205     0.83700
O569        O  0.94488156  0.20058559  0.56793672    -0.66900
Ni570      Ni  0.94602641  0.30018736  0.59321682     1.27400
Ni571      Ni  0.94156327  0.27393096  0.48074574     1.26100
H572        H  0.95685425  0.23538166  0.48823879     0.38200
O573        O  0.82233387  0.18771223  0.37451187    -0.81700
O574        O  0.81825397  0.30994659  0.41894814    -0.66400
O575        O  0.81075414  0.23777509  0.39025617    -1.13000
C576        C  0.81561498  0.26543298  0.22021366     1.05200
O577        O  0.80282798  0.32462729  0.35939049    -0.79600
O578        O  0.78804203  0.28914172  0.29893313    -0.67200
Ni579      Ni  0.82321921  0.21317897  0.42678082     1.34900
C580        C  0.78392713  0.26515378  0.29541906     0.83900
O581        O  0.81028302  0.26925268  0.47620725    -0.80200
O582        O  0.82515774  0.23432415  0.48650957    -0.90400
C583        C  0.81055824  0.32832777  0.39918714     0.83500
O584        O  0.84188780  0.22709096  0.40116762    -0.68600
O585        O  0.81217649  0.28829442  0.23667052    -0.87900
C586        C  0.84636376  0.25049534  0.40995375     0.84300
C587        C  0.81715125  0.25296465  0.50454150     1.05900
H588        H  0.82937782  0.28013415  0.33039334     0.37700
O589        O  0.81856171  0.27713339  0.33565724    -1.10600
O590        O  0.79287948  0.24581271  0.30497109    -0.67200
Ni591      Ni  0.81454750  0.24111381  0.31908567     1.26300
O592        O  0.83684884  0.26936789  0.41763983    -0.67500
O593        O  0.81837658  0.24570070  0.24853912    -0.79800
C594        C  0.81639648  0.18506460  0.33144112     0.83700
O595        O  0.81123504  0.20427570  0.30584756    -0.66900
Ni596      Ni  0.80801678  0.30457096  0.30013324     1.27400
Ni597      Ni  0.81475564  0.27374063  0.40604727     1.26100
H598        H  0.80005796  0.23395670  0.39635805     0.38200
O599        O  0.81524375  0.18490281  0.88051522    -0.81700
O600        O  0.81463262  0.30901820  0.91886862    -0.66400
O601        O  0.80541789  0.23693654  0.89026384    -1.13000
C602        C  0.81538246  0.26192476  0.72237240     1.05200
O603        O  0.80094560  0.32487665  0.85566900    -0.79600
O604        O  0.78529276  0.28659793  0.80261311    -0.67200
Ni605      Ni  0.81548138  0.21113022  0.93144590     1.34900
C606        C  0.78151319  0.26274699  0.79440086     0.83900
O607        O  0.80442653  0.27021708  0.97544822    -0.80200
O608        O  0.81645248  0.23250077  0.99086138    -0.90400
C609        C  0.80789644  0.32800573  0.89735261     0.83500
O610        O  0.83514682  0.22295277  0.91061615    -0.68600
O611        O  0.80885825  0.28311284  0.73697133    -0.87900
C612        C  0.84032579  0.24564625  0.92165373     0.84300
C613        C  0.81018944  0.25367496  0.00564389     1.05900
H614        H  0.82653008  0.27873580  0.83439807     0.37700
O615        O  0.81565855  0.27542779  0.83736583    -1.10600
O616        O  0.79098030  0.24372540  0.79920550    -0.67200
Ni617      Ni  0.81204642  0.23929636  0.82097642     1.26300
O618        O  0.83163667  0.26601637  0.92398466    -0.67500
O619        O  0.81897258  0.24354899  0.75282234    -0.79800
C620        C  0.81171955  0.18282355  0.83473136     0.83700
O621        O  0.80895352  0.20245937  0.80663282    -0.66900
Ni622      Ni  0.80524371  0.30185139  0.79880832     1.27400
Ni623      Ni  0.81021244  0.27294292  0.90632452     1.26100
H624        H  0.79445010  0.23436780  0.89216448     0.38200
O625        O  0.92978208  0.68848339  0.26053061    -0.81700
O626        O  0.93262244  0.80790999  0.21336381    -0.66400
O627        O  0.94398651  0.73683528  0.24002540    -1.13000
C628        C  0.93754397  0.76317431  0.40962878     1.05200
O629        O  0.94869901  0.82322230  0.27080948    -0.79600
O630        O  0.96469073  0.78958902  0.33199308    -0.67200
Ni631      Ni  0.93481983  0.70864432  0.20234602     1.34900
C632        C  0.96938906  0.76598391  0.33677907     0.83900
O633        O  0.94141544  0.76879518  0.15360541    -0.80200
O634        O  0.93885478  0.72538027  0.13939332    -0.90400
C635        C  0.94030050  0.82660712  0.23227770     0.83500
O636        O  0.91424657  0.72153925  0.20121222    -0.68600
O637        O  0.94049646  0.78635083  0.39387851    -0.87900
C638        C  0.90851874  0.74454001  0.20422795     0.84300
C639        C  0.94060114  0.74894276  0.12418934     1.05900
H640        H  0.92369160  0.77677266  0.30128500     0.37700
O641        O  0.93453588  0.77479628  0.29526274    -1.10600
O642        O  0.96104115  0.74595444  0.32697886    -0.67200
Ni643      Ni  0.93976915  0.73925987  0.31080792     1.26300
O644        O  0.91645334  0.76493235  0.21422710    -0.67500
O645        O  0.93534934  0.74327110  0.38091747    -0.79800
C646        C  0.93756735  0.68415300  0.29980546     0.83700
O647        O  0.94444656  0.70273732  0.32259555    -0.66900
Ni648      Ni  0.94421239  0.80312308  0.33059548     1.27400
Ni649      Ni  0.93797301  0.77214141  0.22459745     1.26100
H650        H  0.95493576  0.73552609  0.23523099     0.38200
O651        O  0.93375990  0.68661177  0.75276930    -0.81700
O652        O  0.93668575  0.80932669  0.71396139    -0.66400
O653        O  0.94656714  0.73706464  0.73834218    -1.13000
C654        C  0.93850036  0.76084407  0.90873409     1.05200
O655        O  0.95113799  0.82407432  0.77627185    -0.79600
O656        O  0.96660238  0.78815678  0.83322480    -0.67200
Ni657      Ni  0.93681056  0.71027455  0.69840816     1.34900
C658        C  0.97123688  0.76443189  0.83652383     0.83900
O659        O  0.94623764  0.77086800  0.65411190    -0.80200
O660        O  0.93883774  0.72955549  0.63759737    -0.90400
C661        C  0.94353608  0.82798165  0.73628362     0.83500
O662        O  0.91646226  0.72316896  0.70680729    -0.68600
O663        O  0.94205574  0.78405344  0.89482072    -0.87900
C664        C  0.91145180  0.74663964  0.70363246     0.84300
C665        C  0.94288768  0.75235860  0.62368607     1.05900
H666        H  0.92582483  0.77688250  0.79841101     0.37700
O667        O  0.93675741  0.77472437  0.79422317    -1.10600
O668        O  0.96276141  0.74461313  0.82656168    -0.67200
Ni669      Ni  0.94153896  0.73874031  0.80868070     1.26300
O670        O  0.91999744  0.76686129  0.70846069    -0.67500
O671        O  0.93636927  0.74164444  0.87844924    -0.79800
C672        C  0.93965083  0.68337160  0.79569052     0.83700
O673        O  0.94574312  0.70212736  0.82020494    -0.66900
Ni674      Ni  0.94622470  0.80213023  0.83314081     1.27400
Ni675      Ni  0.94141432  0.77310131  0.72418949     1.26100
H676        H  0.95752649  0.73495806  0.73444325     0.38200
O677        O  0.82287788  0.69319369  0.10831882    -0.81700
O678        O  0.81777223  0.80725910  0.16608051    -0.66400
O679        O  0.80693440  0.73577537  0.14140106    -1.13000
C680        C  0.80966357  0.76237359  0.96994774     1.05200
O681        O  0.80001702  0.82028258  0.11262359    -0.79600
O682        O  0.78434114  0.78886029  0.04924413    -0.67200
Ni683      Ni  0.81790707  0.70782484  0.17199861     1.34900
C684        C  0.77831473  0.76632102  0.05423182     0.83900
O685        O  0.81189282  0.76589887  0.22755304    -0.80200
O686        O  0.81357951  0.72162654  0.23715273    -0.90400
C687        C  0.80960586  0.82543708  0.14722481     0.83500
O688        O  0.83800855  0.72257186  0.17482008    -0.68600
O689        O  0.80880019  0.78608921  0.98638129    -0.87900
C690        C  0.84322221  0.74566638  0.16894928     0.84300
C691        C  0.81252670  0.74503169  0.25467557     1.05900
H692        H  0.82494074  0.77441682  0.07484191     0.37700
O693        O  0.81423291  0.77337131  0.08398064    -1.10600
O694        O  0.78617757  0.74582014  0.06540115    -0.67200
Ni695      Ni  0.80797481  0.73812130  0.06964987     1.26300
O696        O  0.83478748  0.76534915  0.15879391    -0.67500
O697        O  0.80934258  0.74202922  0.99813167    -0.79800
C698        C  0.81248300  0.68466036  0.07948713     0.83700
O699        O  0.80314204  0.70114717  0.06033576    -0.66900
Ni700      Ni  0.80471545  0.80205935  0.05084527     1.27400
Ni701      Ni  0.81293109  0.77090195  0.15577341     1.26100
H702        H  0.79632795  0.73391373  0.15115906     0.38200
O703        O  0.82818326  0.69053870  0.61605601    -0.81700
O704        O  0.81906372  0.80640157  0.66295901    -0.66400
O705        O  0.81116802  0.73364800  0.64232240    -1.13000
C706        C  0.81330682  0.75786875  0.47014615     1.05200
O707        O  0.80082164  0.81723274  0.60917390    -0.79600
O708        O  0.78661030  0.78120783  0.54715143    -0.67200
Ni709      Ni  0.82240130  0.70733092  0.67725244     1.34900
C710        C  0.78227322  0.75734778  0.55105683     0.83900
O711        O  0.81432920  0.76649573  0.72608826    -0.80200
O712        O  0.81728765  0.72297992  0.74056079    -0.90400
C713        C  0.80982410  0.82328126  0.64512457     0.83500
O714        O  0.84197818  0.72356532  0.67794292    -0.68600
O715        O  0.81120471  0.78146254  0.48578197    -0.87900
C716        C  0.84661566  0.74666002  0.66859025     0.84300
C717        C  0.81512198  0.74666383  0.75544395     1.05900
H718        H  0.82798210  0.77387762  0.57414860     0.37700
O719        O  0.81735556  0.77120327  0.58303419    -1.10600
O720        O  0.79115909  0.73865667  0.56390055    -0.67200
Ni721      Ni  0.81300717  0.73492736  0.57071313     1.26300
O722        O  0.83771444  0.76570758  0.65794831    -0.67500
O723        O  0.81475096  0.73789238  0.49900275    -0.79800
C724        C  0.81799442  0.68175055  0.58684691     0.83700
O725        O  0.80940467  0.69782377  0.56367440    -0.66900
Ni726      Ni  0.80629858  0.79789522  0.54877846     1.27400
Ni727      Ni  0.81573505  0.76962857  0.65444808     1.26100
H728        H  0.80050392  0.73103055  0.65084837     0.38200
O729        O  0.92600438  0.06503197  0.11622336    -0.81700
O730        O  0.93214447  0.94823143  0.16140503    -0.66400
O731        O  0.94219193  0.02009489  0.13986688    -1.13000
C732        C  0.93741919  0.99766817  0.96762711     1.05200
O733        O  0.94741285  0.93361583  0.10089749    -0.79600
O734        O  0.96356182  0.96868694  0.04457778    -0.67200
Ni735      Ni  0.93181899  0.04729554  0.17622994     1.34900
C736        C  0.96881088  0.99204987  0.04455407     0.83900
O737        O  0.93973849  0.98757796  0.22343082    -0.80200
O738        O  0.93667833  0.03109737  0.23887566    -0.90400
C739        C  0.93962473  0.92978139  0.14054931     0.83500
O740        O  0.91183656  0.03269362  0.17848032    -0.68600
O741        O  0.93955633  0.97393789  0.98175481    -0.87900
C742        C  0.90662320  0.00957005  0.17336055     0.84300
C743        C  0.93890945  0.00741780  0.25316662     1.05900
H744        H  0.92281169  0.98190350  0.07416281     0.37700
O745        O  0.93365945  0.98329421  0.08092734    -1.10600
O746        O  0.96079949  0.01228084  0.05638676    -0.67200
Ni747      Ni  0.93926848  0.01924614  0.06874317     1.26300
O748        O  0.91496574  0.98992880  0.16157044    -0.67500
O749        O  0.93609765  0.01725295  0.99762132    -0.79800
C750        C  0.93604413  0.07305247  0.08585137     0.83700
O751        O  0.94415536  0.05617776  0.06230522    -0.66900
Ni752      Ni  0.94309982  0.95554653  0.04343398     1.27400
Ni753      Ni  0.93671475  0.98451784  0.15219982     1.26100
H754        H  0.95299948  0.02194213  0.14684048     0.38200
O755        O  0.92665798  0.06530411  0.61278854    -0.81700
O756        O  0.93286357  0.94957348  0.66370357    -0.66400
O757        O  0.94309321  0.02084679  0.63780745    -1.13000
C758        C  0.93878843  0.99431978  0.46768642     1.05200
O759        O  0.94976866  0.93509967  0.60780464    -0.79600
O760        O  0.96544401  0.96858269  0.54774563    -0.67200
Ni761      Ni  0.93307202  0.04875472  0.67344233     1.34900
C762        C  0.97023874  0.99210566  0.54430331     0.83900
O763        O  0.93975809  0.98996812  0.72375564    -0.80200
O764        O  0.93847415  0.03383695  0.73695176    -0.90400
C765        C  0.94137554  0.93145954  0.64619051     0.83500
O766        O  0.91296312  0.03450026  0.67953758    -0.68600
O767        O  0.94157956  0.97105327  0.48356531    -0.87900
C768        C  0.90738308  0.01174588  0.67237439     0.84300
C769        C  0.93960548  0.01015798  0.75260697     1.05900
H770        H  0.92427607  0.98047689  0.57388661     0.37700
O771        O  0.93503444  0.98264993  0.58142947    -1.10600
O772        O  0.96181622  0.01223272  0.55382843    -0.67200
Ni773      Ni  0.94010076  0.01830741  0.56661767     1.26300
O774        O  0.91549536  0.99197892  0.65895822    -0.67500
O775        O  0.93681279  0.01437172  0.49610314    -0.79800
C776        C  0.93579207  0.07222227  0.57845089     0.83700
O777        O  0.94411469  0.05510185  0.55649293    -0.66900
Ni778      Ni  0.94522639  0.95456232  0.54738725     1.27400
Ni779      Ni  0.93739735  0.98566621  0.65255856     1.26100
H780        H  0.95394855  0.02253938  0.64437119     0.38200
O781        O  0.82365313  0.06510682  0.26288588    -0.81700
O782        O  0.81615106  0.95157386  0.20325460    -0.66400
O783        O  0.80592949  0.02296543  0.23388706    -1.13000
C784        C  0.80853188  0.99356352  0.40152139     1.05200
O785        O  0.79813346  0.93742034  0.25467939    -0.79600
O786        O  0.78173740  0.97229921  0.31061322    -0.67200
Ni787      Ni  0.81671235  0.05076046  0.20089858     1.34900
C788        C  0.77810522  0.99551654  0.32393015     0.83900
O789        O  0.81042165  0.99377127  0.14488042    -0.80200
O790        O  0.81062547  0.03797897  0.13651325    -0.90400
C791        C  0.80812035  0.93298000  0.22085596     0.83500
O792        O  0.83645583  0.03473532  0.19312006    -0.68600
O793        O  0.80392495  0.97169533  0.38280931    -0.87900
C794        C  0.84153298  0.01176338  0.20186416     0.84300
C795        C  0.81024990  0.01475745  0.11816727     1.05900
H796        H  0.82353328  0.97978423  0.29629537     0.37700
O797        O  0.81298058  0.98336883  0.28753396    -1.10600
O798        O  0.78730984  0.01494654  0.31962383    -0.67200
Ni799      Ni  0.80895666  0.01931544  0.30503926     1.26300
O800        O  0.83310506  0.99271546  0.21477547    -0.67500
O801        O  0.81242725  0.01354508  0.37522243    -0.79800
C802        C  0.81438619  0.07320993  0.29595321     0.83700
O803        O  0.80572595  0.05664583  0.31777015    -0.66900
Ni804      Ni  0.80134139  0.95601297  0.31725211     1.27400
Ni805      Ni  0.81139209  0.98768782  0.21640470     1.26100
H806        H  0.79510666  0.02530831  0.22733555     0.38200
O807        O  0.82000302  0.06658873  0.75086682    -0.81700
O808        O  0.81637091  0.94673104  0.71029929    -0.66400
O809        O  0.80581513  0.01861187  0.73146291    -1.13000
C810        C  0.81317457  0.99602588  0.90379663     1.05200
O811        O  0.80068491  0.93366147  0.77037727    -0.79600
O812        O  0.78694133  0.96789981  0.83826768    -0.67200
Ni813      Ni  0.81559270  0.04550532  0.69316830     1.34900
C814        C  0.78093785  0.99073953  0.83492839     0.83900
O815        O  0.80727884  0.98461164  0.64838947    -0.80200
O816        O  0.81211040  0.02703323  0.63128974    -0.90400
C817        C  0.80865317  0.92877620  0.73125255     0.83500
O818        O  0.83606832  0.03265669  0.69623876    -0.68600
O819        O  0.81321810  0.97194233  0.88931593    -0.87900
C820        C  0.84151037  0.00955833  0.69940416     0.84300
C821        C  0.80872965  0.00362814  0.61765262     1.05900
H822        H  0.82637547  0.98180895  0.79480983     0.37700
O823        O  0.81541378  0.98247012  0.78958317    -1.10600
O824        O  0.78780476  0.01037569  0.81534505    -0.67200
Ni825      Ni  0.80920188  0.01792544  0.80259121     1.26300
O826        O  0.83323001  0.98922493  0.70656412    -0.67500
O827        O  0.81247104  0.01564332  0.87381013    -0.79800
C828        C  0.81138679  0.07230515  0.78760507     0.83700
O829        O  0.80393753  0.05455543  0.81071666    -0.66900
Ni830      Ni  0.80722119  0.95433434  0.82824953     1.27400
Ni831      Ni  0.81154551  0.98295014  0.71894419     1.26100
H832        H  0.79492789  0.02016200  0.72528956     0.38200
O833        O  0.20458658  0.06521114  0.24023872    -0.81700
O834        O  0.19518838  0.94779874  0.18802678    -0.66400
O835        O  0.18674838  0.02052219  0.21428121    -1.13000
C836        C  0.18738237  0.99473415  0.38347692     1.05200
O837        O  0.17727006  0.93601236  0.24170846    -0.79600
O838        O  0.16131748  0.97269961  0.28923772    -0.67200
Ni839      Ni  0.19740972  0.04791348  0.17980124     1.34900
C840        C  0.15758306  0.99673886  0.29281689     0.83900
O841        O  0.18928802  0.98943469  0.12730737    -0.80200
O842        O  0.19092639  0.03356047  0.11675364    -0.90400
C843        C  0.18751749  0.93001979  0.21001854     0.83500
O844        O  0.21678492  0.03072960  0.17071127    -0.68600
O845        O  0.18160963  0.97352015  0.36600911    -0.87900
C846        C  0.22143375  0.00709439  0.17572051     0.84300
C847        C  0.18941107  0.01010940  0.09988218     1.05900
H848        H  0.20347975  0.97682881  0.27844097     0.37700
O849        O  0.19299445  0.98111701  0.26994626    -1.10600
O850        O  0.16742854  0.01534403  0.29478988    -0.67200
Ni851      Ni  0.18964746  0.01729376  0.28505440     1.26300
O852        O  0.21302799  0.98872836  0.19271810    -0.67500
O853        O  0.19290369  0.01255109  0.35532344    -0.79800
C854        C  0.19603520  0.07117327  0.27726925     0.83700
O855        O  0.18733913  0.05403011  0.29666355    -0.66900
Ni856      Ni  0.18018573  0.95587467  0.30217204     1.27400
Ni857      Ni  0.19116550  0.98456226  0.19868388     1.26100
H858        H  0.17596738  0.02331113  0.20764718     0.38200
O859        O  0.19950999  0.06771341  0.73728164    -0.81700
O860        O  0.19194703  0.94823834  0.68904241    -0.66400
O861        O  0.18322311  0.02120082  0.71403386    -1.13000
C862        C  0.18640440  0.99636788  0.88508269     1.05200
O863        O  0.17492082  0.93770950  0.74638069    -0.79600
O864        O  0.16000063  0.97217212  0.80214517    -0.67200
Ni865      Ni  0.19248471  0.04903571  0.67787641     1.34900
C866        C  0.15534703  0.99573816  0.79774654     0.83900
O867        O  0.18430430  0.98945364  0.62859009    -0.80200
O868        O  0.18598700  0.03301415  0.61616975    -0.90400
C869        C  0.18404198  0.93090728  0.71182838     0.83500
O870        O  0.21224642  0.03378734  0.66721038    -0.68600
O871        O  0.18346471  0.97313058  0.86967737    -0.87900
C872        C  0.21748066  0.01039221  0.66925621     0.84300
C873        C  0.18383281  0.00959449  0.59990744     1.05900
H874        H  0.20174846  0.98042904  0.77731918     0.37700
O875        O  0.19097021  0.98316391  0.77057932    -1.10600
O876        O  0.16430105  0.01523257  0.79226282    -0.67200
Ni877      Ni  0.18619088  0.01918103  0.78477912     1.26300
O878        O  0.20972678  0.99103274  0.68658572    -0.67500
O879        O  0.18866952  0.01588186  0.85595796    -0.79800
C880        C  0.19142059  0.07291992  0.77596066     0.83700
O881        O  0.18267511  0.05571007  0.79485654    -0.66900
Ni882      Ni  0.17981644  0.95665248  0.80608448     1.27400
Ni883      Ni  0.18796823  0.98541586  0.69922569     1.26100
H884        H  0.17237767  0.02319002  0.70758984     0.38200
O885        O  0.05173248  0.07096714  0.40256684    -0.81700
O886        O  0.05717907  0.94806117  0.44306469    -0.66400
O887        O  0.06592423  0.02146111  0.42309879    -1.13000
C888        C  0.05979473  0.99844186  0.25055943     1.05200
O889        O  0.07359360  0.93841338  0.38300038    -0.79600
O890        O  0.08702426  0.97190609  0.32072334    -0.67200
Ni891      Ni  0.05574591  0.04866844  0.46017305     1.34900
C892        C  0.09243276  0.99485984  0.32690317     0.83900
O893        O  0.06512100  0.98754064  0.50622767    -0.80200
O894        O  0.05888247  0.02994707  0.52194489    -0.90400
C895        C  0.06507202  0.93115852  0.41872557     0.83500
O896        O  0.03552129  0.03466483  0.45625622    -0.68600
O897        O  0.06142997  0.97452946  0.26413418    -0.87900
C898        C  0.03098308  0.01099620  0.46067600     0.84300
C899        C  0.06230779  0.00666909  0.53623097     1.05900
H900        H  0.04628453  0.98277036  0.35933685     0.37700
O901        O  0.05721708  0.98444758  0.36468796    -1.10600
O902        O  0.08429829  0.01429153  0.34145392    -0.67200
Ni903      Ni  0.06263995  0.02011989  0.35216335     1.26300
O904        O  0.03956811  0.99103675  0.45151590    -0.67500
O905        O  0.05936021  0.01789807  0.28103178    -0.79800
C906        C  0.05961302  0.07444782  0.36293351     0.83700
O907        O  0.06738983  0.05609299  0.34328202    -0.66900
Ni908      Ni  0.06694102  0.95752750  0.32543220     1.27400
Ni909      Ni  0.06109225  0.98526680  0.43558357     1.26100
H910        H  0.07674026  0.02366488  0.42955252     0.38200
O911        O  0.04916269  0.06916104  0.89926022    -0.81700
O912        O  0.05533500  0.94831643  0.94742672    -0.66400
O913        O  0.06411802  0.02093473  0.92129744    -1.13000
C914        C  0.05762413  0.99474292  0.75077862     1.05200
O915        O  0.07140106  0.93700044  0.88731475    -0.79600
O916        O  0.08507644  0.96985116  0.82470062    -0.67200
Ni917      Ni  0.05476124  0.04904643  0.95811268     1.34900
C918        C  0.09019177  0.99318615  0.82773324     0.83900
O919        O  0.06381376  0.98892289  0.00682548    -0.80200
O920        O  0.05964822  0.03230116  0.02053967    -0.90400
C921        C  0.06310976  0.93084214  0.92434207     0.83500
O922        O  0.03455338  0.03483479  0.96232292    -0.68600
O923        O  0.05980425  0.97121466  0.76581335    -0.87900
C924        C  0.02978386  0.01118448  0.96438832     0.84300
C925        C  0.06240296  0.00893982  0.03578284     1.05900
H926        H  0.04421783  0.98069300  0.86132028     0.37700
O927        O  0.05514968  0.98279571  0.86606056    -1.10600
O928        O  0.08177329  0.01284605  0.83882888    -0.67200
Ni929      Ni  0.06019015  0.01836920  0.85080480     1.26300
O930        O  0.03802836  0.99125383  0.95256496    -0.67500
O931        O  0.05644161  0.01462186  0.78012593    -0.79800
C932        C  0.05726881  0.07304368  0.86029222     0.83700
O933        O  0.06461590  0.05445002  0.83947517    -0.66900
Ni934      Ni  0.06500349  0.95531671  0.82856817     1.27400
Ni935      Ni  0.05939133  0.98515510  0.93665826     1.26100
H936        H  0.07504018  0.02297439  0.92645464     0.38200
O937        O  0.05170685  0.17899498  0.22244029    -0.81700
O938        O  0.05743489  0.30135999  0.18056619    -0.66400
O939        O  0.06633729  0.22789875  0.20218475    -1.13000
C940        C  0.05987559  0.25208291  0.37400944     1.05200
O941        O  0.07404241  0.31037107  0.23974907    -0.79600
O942        O  0.08743720  0.27734096  0.30320914    -0.67200
Ni943      Ni  0.05642731  0.20056134  0.16476936     1.34900
C944        C  0.09269967  0.25414760  0.29841824     0.83900
O945        O  0.06580253  0.26131403  0.11862996    -0.80200
O946        O  0.06046522  0.21852804  0.10301827    -0.90400
C947        C  0.06515924  0.31822257  0.20544566     0.83500
O948        O  0.03613209  0.21486890  0.16525352    -0.68600
O949        O  0.06189737  0.27582366  0.35998916    -0.87900
C950        C  0.03150991  0.23863077  0.16287064     0.84300
C951        C  0.06382615  0.24180577  0.08885382     1.05900
H952        H  0.04665310  0.26726254  0.26493845     0.37700
O953        O  0.05756526  0.26527059  0.25970721    -1.10600
O954        O  0.08447284  0.23475369  0.28449453    -0.67200
Ni955      Ni  0.06276578  0.22955295  0.27295491     1.26300
O956        O  0.04005124  0.25838255  0.17328851    -0.67500
O957        O  0.05921813  0.23244420  0.34389644    -0.79800
C958        C  0.05954559  0.17503162  0.26197444     0.83700
O959        O  0.06716477  0.19333299  0.28251600    -0.66900
Ni960      Ni  0.06743482  0.29218650  0.29817609     1.27400
Ni961      Ni  0.06153270  0.26408011  0.18893133     1.26100
H962        H  0.07719123  0.22566703  0.19633103     0.38200
O963        O  0.05232246  0.17919079  0.72742199    -0.81700
O964        O  0.05659629  0.30068227  0.68065732    -0.66400
O965        O  0.06678017  0.22771906  0.70278251    -1.13000
C966        C  0.06218603  0.25334164  0.87443392     1.05200
O967        O  0.07409630  0.31088248  0.73633341    -0.79600
O968        O  0.08872041  0.27871154  0.79979005    -0.67200
Ni969      Ni  0.05632052  0.19989367  0.66823566     1.34900
C970        C  0.09401174  0.25547367  0.79620724     0.83900
O971        O  0.06428717  0.26026252  0.61775026    -0.80200
O972        O  0.05930389  0.21709180  0.60516057    -0.90400
C973        C  0.06407322  0.31809628  0.70495626     0.83500
O974        O  0.03604324  0.21393151  0.67116844    -0.68600
O975        O  0.06392291  0.27702569  0.85952982    -0.87900
C976        C  0.03131947  0.23759853  0.66894660     0.84300
C977        C  0.06203560  0.24027580  0.58918259     1.05900
H978        H  0.04767043  0.26721774  0.76731496     0.37700
O979        O  0.05856704  0.26542935  0.76038844    -1.10600
O980        O  0.08585830  0.23578052  0.78323316    -0.67200
Ni981      Ni  0.06411353  0.22993546  0.77406134     1.26300
O982        O  0.03985341  0.25748373  0.67767023    -0.67500
O983        O  0.06138511  0.23340377  0.84514795    -0.79800
C984        C  0.06040948  0.17557798  0.76648105     0.83700
O985        O  0.06872878  0.19372797  0.78446769    -0.66900
Ni986      Ni  0.06857742  0.29304867  0.79653072     1.27400
Ni987      Ni  0.06139943  0.26368483  0.68903366     1.26100
H988        H  0.07741911  0.22563896  0.69549395     0.38200
O989        O  0.20295550  0.18174215  0.40223665    -0.81700
O990        O  0.19424148  0.29964103  0.45368711    -0.66400
O991        O  0.18601975  0.22681567  0.42891107    -1.13000
C992        C  0.18913212  0.25430493  0.25810162     1.05200
O993        O  0.17590648  0.30844630  0.40004688    -0.79600
O994        O  0.16232843  0.27603027  0.33409584    -0.67200
Ni995      Ni  0.19643227  0.19935094  0.46323434     1.34900
C996        C  0.15751931  0.25263475  0.33991051     0.83900
O997        O  0.18831918  0.25840528  0.51501594    -0.80200
O998        O  0.19059771  0.21439945  0.52665880    -0.90400
C999        C  0.18585549  0.31632914  0.43122808     0.83500
O1000       O  0.21602398  0.21572981  0.47100163    -0.68600
O1001       O  0.18756400  0.27776502  0.27479557    -0.87900
C1002       C  0.22072031  0.23941241  0.46815658     0.84300
C1003       C  0.18902589  0.23798778  0.54302687     1.05900
H1004       H  0.20352489  0.26782138  0.36486946     0.37700
O1005       O  0.19278823  0.26521271  0.37240100    -1.10600
O1006       O  0.16620900  0.23338366  0.35133113    -0.67200
Ni1007     Ni  0.18819088  0.22948383  0.35758897     1.26300
O1008       O  0.21238651  0.25823793  0.45211537    -0.67500
O1009       O  0.18989651  0.23388597  0.28611010    -0.79800
C1010       C  0.19426336  0.17592284  0.36537333     0.83700
O1011       O  0.18506752  0.19279201  0.34713465    -0.66900
Ni1012     Ni  0.18199569  0.29233031  0.33841048     1.27400
Ni1013     Ni  0.19053891  0.26267772  0.44379804     1.26100
H1014       H  0.17527861  0.22433435  0.43649566     0.38200
O1015       O  0.20288290  0.18222512  0.90375358    -0.81700
O1016       O  0.19520916  0.30126146  0.95249682    -0.66400
O1017       O  0.18658496  0.22843185  0.92844472    -1.13000
C1018       C  0.18968745  0.25449874  0.75741071     1.05200
O1019       O  0.17709487  0.31040516  0.89821926    -0.79600
O1020       O  0.16290290  0.27710561  0.83650276    -0.67200
Ni1021     Ni  0.19640340  0.20073339  0.96380390     1.34900
C1022       C  0.15832757  0.25352403  0.84141606     0.83900
O1023       O  0.18904056  0.26040872  0.01419888    -0.80200
O1024       O  0.19036183  0.21642463  0.02633452    -0.90400
C1025       C  0.18677107  0.31806859  0.93047860     0.83500
O1026       O  0.21619504  0.21654749  0.97152709    -0.68600
O1027       O  0.18739528  0.27790222  0.77340362    -0.87900
C1028       C  0.22115768  0.24006658  0.96809407     0.84300
C1029       C  0.18924676  0.24009574  0.04253560     1.05900
H1030       H  0.20444323  0.26921467  0.86393496     0.37700
O1031       O  0.19371628  0.26649499  0.87148710    -1.10600
O1032       O  0.16725801  0.23432771  0.85036368    -0.67200
Ni1033     Ni  0.18914131  0.23062311  0.85731450     1.26300
O1034       O  0.21309429  0.25919246  0.95179331    -0.67500
O1035       O  0.19125725  0.23444395  0.78592629    -0.79800
C1036       C  0.19410923  0.17665367  0.86699348     0.83700
O1037       O  0.18564892  0.19410239  0.84729995    -0.66900
Ni1038     Ni  0.18263786  0.29324871  0.83713870     1.27400
Ni1039     Ni  0.19133837  0.26428196  0.94291588     1.26100
H1040       H  0.17579461  0.22635052  0.93555075     0.38200
O1041       O  0.04794938  0.68189129  0.49069370    -0.81700
O1042       O  0.05652298  0.80162917  0.43487145    -0.66400
O1043       O  0.06371810  0.72832968  0.46168472    -1.13000
C1044       C  0.06173313  0.75676952  0.63229077     1.05200
O1045       O  0.07421535  0.81193778  0.49030928    -0.79600
O1046       O  0.08806619  0.77881765  0.55225252    -0.67200
Ni1047     Ni  0.05218271  0.70115028  0.42954135     1.34900
C1048       C  0.09267690  0.75518835  0.54888607     0.83900
O1049       O  0.06235711  0.75963418  0.37519018    -0.80200
O1050       O  0.05555277  0.71706193  0.36519847    -0.90400
C1051       C  0.06509202  0.81871257  0.45579071     0.83500
O1052       O  0.03242111  0.71745460  0.43203104    -0.68600
O1053       O  0.06401510  0.78000258  0.61569555    -0.87900
C1054       C  0.02857532  0.74148773  0.42680591     0.84300
C1055       C  0.05914369  0.73964663  0.34778527     1.05900
H1056       H  0.04645913  0.77065137  0.52469230     0.37700
O1057       O  0.05719934  0.76773414  0.51740556    -1.10600
O1058       O  0.08384390  0.73592271  0.53880847    -0.67200
Ni1059     Ni  0.06184508  0.73187122  0.53288287     1.26300
O1060       O  0.03775635  0.76067032  0.43486356    -0.67500
O1061       O  0.06000172  0.73657930  0.60411583    -0.79800
C1062       C  0.05708379  0.67741267  0.52697933     0.83700
O1063       O  0.06561754  0.69539020  0.54463541    -0.66900
Ni1064     Ni  0.06842718  0.79488306  0.55127989     1.27400
Ni1065     Ni  0.05966774  0.76447585  0.44605604     1.26100
H1066       H  0.07433268  0.72493509  0.45349516     0.38200
O1067       O  0.05179382  0.67903657  0.97661678    -0.81700
O1068       O  0.05746446  0.80247545  0.94154362    -0.66400
O1069       O  0.06585090  0.72906788  0.96054580    -1.13000
C1070       C  0.05744828  0.75116962  0.13264801     1.05200
O1071       O  0.07328322  0.81231592  0.00334722    -0.79600
O1072       O  0.08636922  0.77741996  0.06581583    -0.67200
Ni1073     Ni  0.05571522  0.70272116  0.92105967     1.34900
C1074       C  0.09148731  0.75425785  0.05895119     0.83900
O1075       O  0.06641790  0.76380995  0.87869806    -0.80200
O1076       O  0.05914322  0.72233447  0.86051553    -0.90400
C1077       C  0.06489990  0.81939022  0.96692951     0.83500
O1078       O  0.03546813  0.71715827  0.92598078    -0.68600
O1079       O  0.06023179  0.77495129  0.12030028    -0.87900
C1080       C  0.03116872  0.74104669  0.92169346     0.84300
C1081       C  0.06353549  0.74529021  0.84756861     1.05900
H1082       H  0.04572823  0.76818918  0.02294801     0.37700
O1083       O  0.05667388  0.76606759  0.01885587    -1.10600
O1084       O  0.08314518  0.73515142  0.04439070    -0.67200
Ni1085     Ni  0.06153781  0.73010732  0.03092551     1.26300
O1086       O  0.04001018  0.76058411  0.93046641    -0.67500
O1087       O  0.05698588  0.73212843  0.10126000    -0.79800
C1088       C  0.05933185  0.67524476  0.01690738     0.83700
O1089       O  0.06598049  0.69390239  0.03971208    -0.66900
Ni1090     Ni  0.06632972  0.79241820  0.05998102     1.27400
Ni1091     Ni  0.06138618  0.76550433  0.94864958     1.26100
H1092       H  0.07672672  0.72647209  0.95553514     0.38200
O1093       O  0.20374089  0.68462105  0.14486318    -0.81700
O1094       O  0.19549485  0.80094468  0.19308088    -0.66400
O1095       O  0.18587312  0.72853599  0.17005484    -1.13000
C1096       C  0.18739553  0.75294699  0.99959165     1.05200
O1097       O  0.17712607  0.81197037  0.14058663    -0.79600
O1098       O  0.16098395  0.77702272  0.08853382    -0.67200
Ni1099     Ni  0.19621002  0.70116260  0.20509496     1.34900
C1100       C  0.15687260  0.75311919  0.08765158     0.83900
O1101       O  0.18922512  0.75998623  0.25572896    -0.80200
O1102       O  0.18942823  0.71581843  0.26757595    -0.90400
C1103       C  0.18758731  0.81850880  0.17110255     0.83500
O1104       O  0.21572404  0.71734331  0.21580615    -0.68600
O1105       O  0.18276514  0.77532350  0.01587107    -0.87900
C1106       C  0.22081291  0.74049925  0.20923374     0.84300
C1107       C  0.18880027  0.73953494  0.28386553     1.05900
H1108       H  0.20315676  0.76999438  0.10368638     0.37700
O1109       O  0.19258397  0.76665094  0.11255766    -1.10600
O1110       O  0.16630017  0.73384861  0.09002189    -0.67200
Ni1111     Ni  0.18844876  0.73053661  0.09896474     1.26300
O1112       O  0.21283879  0.75893658  0.19001599    -0.67500
O1113       O  0.19131201  0.73404317  0.02822638    -0.79800
C1114       C  0.19516963  0.67762053  0.10870414     0.83700
O1115       O  0.18571052  0.69361412  0.08928514    -0.66900
Ni1116     Ni  0.18048784  0.79268313  0.07968868     1.27400
Ni1117     Ni  0.19096924  0.76421756  0.18409593     1.26100
H1118       H  0.17509190  0.72644361  0.17730975     0.38200
O1119       O  0.20305972  0.68408449  0.64467128    -0.81700
O1120       O  0.19378127  0.80155792  0.69439700    -0.66400
O1121       O  0.18590644  0.72874620  0.66953957    -1.13000
C1122       C  0.18845439  0.75554791  0.49876760     1.05200
O1123       O  0.17564415  0.81143504  0.64045911    -0.79600
O1124       O  0.16165997  0.77704770  0.57949906    -0.67200
Ni1125     Ni  0.19633256  0.70175425  0.70520340     1.34900
C1126       C  0.15735901  0.75326648  0.58367115     0.83900
O1127       O  0.18695259  0.76061524  0.75457875    -0.80200
O1128       O  0.19016434  0.71728340  0.76804557    -0.90400
C1129       C  0.18514000  0.81849634  0.67387125     0.83500
O1130       O  0.21589687  0.71802641  0.71279907    -0.68600
O1131       O  0.18586482  0.77872282  0.51541099    -0.87900
C1132       C  0.22057205  0.74160659  0.70859990     0.84300
C1133       C  0.18716114  0.74064584  0.78355154     1.05900
H1134       H  0.20335402  0.77028766  0.60537060     0.37700
O1135       O  0.19265625  0.76719871  0.61282041    -1.10600
O1136       O  0.16647648  0.73420733  0.59161226    -0.67200
Ni1137     Ni  0.18837737  0.73109089  0.59843003     1.26300
O1138       O  0.21201430  0.76028668  0.69311583    -0.67500
O1139       O  0.19029379  0.73533590  0.52688282    -0.79800
C1140       C  0.19411304  0.67730660  0.60913932     0.83700
O1141       O  0.18527288  0.69415622  0.58901738    -0.66900
Ni1142     Ni  0.18118711  0.79388279  0.57932750     1.27400
Ni1143     Ni  0.19014020  0.76464954  0.68392712     1.26100
H1144       H  0.17515530  0.72610544  0.67677817     0.38200
O1145       O  0.05381263  0.56955706  0.15463998    -0.81700
O1146       O  0.05664339  0.44930878  0.19758022    -0.66400
O1147       O  0.06860021  0.52133417  0.17869262    -1.13000
C1148       C  0.06504823  0.50008729  0.00604056     1.05200
O1149       O  0.07328214  0.43656537  0.13959992    -0.79600
O1150       O  0.09014600  0.47007259  0.08670625    -0.67200
Ni1151     Ni  0.05940839  0.54984698  0.21436758     1.34900
C1152       C  0.09583594  0.49298671  0.08998997     0.83900
O1153       O  0.06445160  0.48903716  0.26233565    -0.80200
O1154       O  0.06452659  0.53307601  0.27656681    -0.90400
C1155       C  0.06412010  0.43119358  0.17501876     0.83500
O1156       O  0.03901635  0.53621039  0.22134365    -0.68600
O1157       O  0.06696340  0.47615438  0.01919887    -0.87900
C1158       C  0.03328661  0.51322838  0.21712966     0.84300
C1159       C  0.06482368  0.50918994  0.29171262     1.05900
H1160       H  0.04905106  0.48426613  0.11066324     0.37700
O1161       O  0.05988768  0.48523289  0.11868935    -1.10600
O1162       O  0.08785926  0.51348753  0.09921609    -0.67200
Ni1163     Ni  0.06626011  0.52072896  0.10774941     1.26300
O1164       O  0.04062718  0.49368445  0.19878606    -0.67500
O1165       O  0.06379674  0.51929170  0.03663000    -0.79800
C1166       C  0.06258099  0.57431267  0.11744449     0.83700
O1167       O  0.07159558  0.55677803  0.10079047    -0.66900
Ni1168     Ni  0.06965796  0.45772454  0.08152196     1.27400
Ni1169     Ni  0.06216096  0.48602414  0.19038154     1.26100
H1170       H  0.07936504  0.52205567  0.18644025     0.38200
O1171       O  0.04939349  0.56540750  0.64543116    -0.81700
O1172       O  0.05628666  0.44858661  0.70234319    -0.66400
O1173       O  0.06556787  0.52127982  0.67929206    -1.13000
C1174       C  0.06454774  0.49369874  0.50719639     1.05200
O1175       O  0.07472890  0.43883228  0.64961082    -0.79600
O1176       O  0.08956068  0.46991211  0.58461737    -0.67200
Ni1177     Ni  0.05434435  0.54920546  0.70932828     1.34900
C1178       C  0.09542461  0.49214538  0.59517608     0.83900
O1179       O  0.06163938  0.49098523  0.76532569    -0.80200
O1180       O  0.05913372  0.53537245  0.77445648    -0.90400
C1181       C  0.06437912  0.43135186  0.67960009     0.83500
O1182       O  0.03443921  0.53303024  0.71436861    -0.68600
O1183       O  0.06483054  0.47005059  0.52337083    -0.87900
C1184       C  0.02962830  0.50935351  0.71124258     0.84300
C1185       C  0.06108064  0.51217907  0.79209621     1.05900
H1186       H  0.04856669  0.48169940  0.61179393     0.37700
O1187       O  0.05923705  0.48317733  0.62117873    -1.10600
O1188       O  0.08730711  0.51209880  0.60789661    -0.67200
Ni1189     Ni  0.06522917  0.51846149  0.60782829     1.26300
O1190       O  0.03833649  0.49045879  0.69750364    -0.67500
O1191       O  0.06483514  0.51409292  0.53576389    -0.79800
C1192       C  0.05957032  0.57205630  0.61340093     0.83700
O1193       O  0.06951692  0.55518865  0.59924863    -0.66900
Ni1194     Ni  0.06950350  0.45520696  0.58750011     1.27400
Ni1195     Ni  0.06036206  0.48572479  0.69328415     1.26100
H1196       H  0.07607820  0.52369444  0.68985490     0.38200
O1197       O  0.20361286  0.56361501  0.49856646    -0.81700
O1198       O  0.19592848  0.44648565  0.44034439    -0.66400
O1199       O  0.18699431  0.51834562  0.47249505    -1.13000
C1200       C  0.19153292  0.49556786  0.64139305     1.05200
O1201       O  0.18662211  0.42918381  0.51103631    -0.79600
O1202       O  0.16676256  0.46560740  0.54461962    -0.67200
Ni1203     Ni  0.19650063  0.54671618  0.43772311     1.34900
C1204       C  0.16117308  0.48816478  0.55422304     0.83900
O1205       O  0.18769274  0.48822429  0.38453781    -0.80200
O1206       O  0.19008764  0.53227656  0.37441721    -0.90400
C1207       C  0.19119409  0.42709625  0.46613740     0.83500
O1208       O  0.21642673  0.53185548  0.42682638    -0.68600
O1209       O  0.18572765  0.47402190  0.62618775    -0.87900
C1210       C  0.22146852  0.50831657  0.42591193     0.84300
C1211       C  0.18817277  0.50896865  0.35709853     1.12300
H1212       H  0.20770878  0.47799928  0.53071294     0.37700
O1213       O  0.19678524  0.48016184  0.52610476    -1.10600
O1214       O  0.16972672  0.50860389  0.55757623    -0.67200
Ni1215     Ni  0.19133655  0.51579690  0.54224942     1.26300
O1216       O  0.21351284  0.48864435  0.44000376    -0.67500
O1217       O  0.19652708  0.51284694  0.61141887    -0.79800
C1218       C  0.19482061  0.56946812  0.53501281     0.83700
O1219       O  0.18647525  0.55187376  0.55434057    -0.66900
Ni1220     Ni  0.18654888  0.45379664  0.56475200     1.27400
Ni1221     Ni  0.19206347  0.48304021  0.45503912     1.26100
H1222       H  0.17606413  0.52040964  0.46803301     0.38200
O1223       O  0.20804015  0.56306764  0.00151096    -0.81700
O1224       O  0.19805848  0.44689604  0.94490362    -0.66400
O1225       O  0.19093313  0.51991795  0.96945607    -1.13000
C1226       C  0.18972533  0.49309448  0.14126261     1.05200
O1227       O  0.17927876  0.43807527  0.99736949    -0.79600
O1228       O  0.16493837  0.47173182  0.05889076    -0.67200
Ni1229     Ni  0.20235490  0.54694237  0.93820551     1.34900
C1230       C  0.16049872  0.49526219  0.05197112     0.83900
O1231       O  0.19334439  0.48888918  0.88359091    -0.80200
O1232       O  0.19710345  0.53279511  0.87342572    -0.90400
C1233       C  0.18893678  0.43048846  0.96480998     0.83500
O1234       O  0.22181339  0.52972317  0.93251492    -0.68600
O1235       O  0.18827973  0.46954161  0.12489189    -0.87900
C1236       C  0.22608369  0.50574473  0.93410086     0.84300
C1237       C  0.19458198  0.50957046  0.85632089     1.05900
H1238       H  0.20683917  0.47832652  0.03645860     0.37700
O1239       O  0.19626055  0.48126868  0.02717353    -1.10600
O1240       O  0.16952349  0.51413672  0.04195494    -0.67200
Ni1241     Ni  0.19154679  0.51728753  0.04087103     1.26300
O1242       O  0.21721022  0.48714414  0.94815011    -0.67500
O1243       O  0.19156621  0.51313396  0.11278729    -0.79800
C1244       C  0.19812039  0.57045476  0.03378924     0.83700
O1245       O  0.18825174  0.55412482  0.04954577    -0.66900
Ni1246     Ni  0.18439167  0.45475860  0.05970528     1.27400
Ni1247     Ni  0.19505501  0.48402096  0.95506580     1.26100
H1248       H  0.18042403  0.52303294  0.95954129     0.38200
O1249       O  0.42926910  0.56514953  0.14649634    -0.81700
O1250       O  0.43713190  0.44797281  0.19728363    -0.66400
O1251       O  0.44541198  0.52040043  0.17277350    -1.13000
C1252       C  0.44099142  0.49096311  0.00203971     1.05200
O1253       O  0.45558778  0.43813859  0.14395169    -0.79600
O1254       O  0.46831114  0.47036300  0.07166773    -0.67200
Ni1255     Ni  0.43450492  0.54759903  0.20733257     1.34900
C1256       C  0.47301906  0.49408262  0.07392304     0.83900
O1257       O  0.44256909  0.48873961  0.25896812    -0.80200
O1258       O  0.43870726  0.53222305  0.27135371    -0.90400
C1259       C  0.44608973  0.43112932  0.17754093     0.83500
O1260       O  0.41461433  0.53216765  0.20758599    -0.68600
O1261       O  0.44248889  0.46763610  0.01916996    -0.87900
C1262       C  0.40983925  0.50867036  0.20301191     0.84300
C1263       C  0.44092050  0.50888335  0.28746454     1.05900
H1264       H  0.42781028  0.47932778  0.10846136     0.37700
O1265       O  0.43853096  0.48179079  0.11615043    -1.10600
O1266       O  0.46498966  0.51277682  0.09237601    -0.67200
Ni1267     Ni  0.44312877  0.51735310  0.10098357     1.26300
O1268       O  0.41866191  0.48918523  0.19362562    -0.67500
O1269       O  0.44074319  0.51199865  0.02924222    -0.79800
C1270       C  0.43860923  0.57166956  0.11239259     0.83700
O1271       O  0.44682798  0.55432631  0.09058155    -0.66900
Ni1272     Ni  0.44883938  0.45393760  0.08242834     1.27400
Ni1273     Ni  0.44065281  0.48463202  0.18744725     1.26100
H1274       H  0.45614529  0.52297857  0.18036095     0.38200
O1275       O  0.43668116  0.57291441  0.66348298    -0.81700
O1276       O  0.43622207  0.44855440  0.69284004    -0.66400
O1277       O  0.44680107  0.52102373  0.67501584    -1.13000
C1278       C  0.43875149  0.49801207  0.50269611     1.05200
O1279       O  0.45337784  0.43756452  0.63571113    -0.79600
O1280       O  0.46680122  0.47101654  0.56816864    -0.67200
Ni1281     Ni  0.43561494  0.54660930  0.71422848     1.34900
C1282       C  0.47193611  0.49443298  0.56875448     0.83900
O1283       O  0.44486551  0.48640124  0.75641082    -0.80200
O1284       O  0.43344029  0.52471386  0.77291535    -0.90400
C1285       C  0.44465392  0.43128474  0.67199553     0.83500
O1286       O  0.41631651  0.53550946  0.68879107    -0.68600
O1287       O  0.44067233  0.47406663  0.51629850    -0.87900
C1288       C  0.41070875  0.51265993  0.69434061     0.84300
C1289       C  0.43914988  0.50292360  0.78706586     1.05900
H1290       H  0.42666938  0.48320088  0.60961817     0.37700
O1291       O  0.43754420  0.48456752  0.61563554    -1.10600
O1292       O  0.46437623  0.51384980  0.58718203    -0.67200
Ni1293     Ni  0.44289908  0.52009661  0.60345654     1.26300
O1294       O  0.41919259  0.49209212  0.69782970    -0.67500
O1295       O  0.43854415  0.51764655  0.53297502    -0.79800
C1296       C  0.44242283  0.57555124  0.62017904     0.83700
O1297       O  0.44744666  0.55649012  0.59392306    -0.66900
Ni1298     Ni  0.44669311  0.45696616  0.57735715     1.27400
Ni1299     Ni  0.44101990  0.48506252  0.68600310     1.26100
H1300       H  0.45765096  0.52304671  0.68133450     0.38200
O1301       O  0.31923535  0.56852031  0.24864996    -0.81700
O1302       O  0.31535499  0.44540222  0.20666266    -0.66400
O1303       O  0.30832676  0.51835598  0.23296194    -1.13000
C1304       C  0.31561350  0.48928914  0.40304518     1.05200
O1305       O  0.29795894  0.43502419  0.26332594    -0.79600
O1306       O  0.28577261  0.46880334  0.33344476    -0.67200
Ni1307     Ni  0.32125722  0.54252488  0.19771538     1.34900
C1308       C  0.28143278  0.49273920  0.33303829     0.83900
O1309       O  0.30919923  0.48638209  0.14643663    -0.80200
O1310       O  0.32456227  0.52079437  0.13956438    -0.90400
C1311       C  0.30671953  0.42846107  0.22717297     0.83500
O1312       O  0.33920222  0.52847408  0.22808758    -0.68600
O1313       O  0.31183773  0.46652504  0.38658833    -0.87900
C1314       C  0.34393835  0.50506191  0.22029805     0.84300
C1315       C  0.31702733  0.50215702  0.11975971     1.05900
H1316       H  0.32628328  0.47583407  0.29423502     0.37700
O1317       O  0.31551829  0.47907772  0.28819497    -1.10600
O1318       O  0.29009373  0.51155133  0.31858431    -0.67200
Ni1319     Ni  0.31193015  0.51492796  0.30459852     1.26300
O1320       O  0.33472239  0.48613079  0.20970231    -0.67500
O1321       O  0.31621451  0.50960239  0.37479179    -0.79800
C1322       C  0.31380088  0.57105682  0.29243978     0.83700
O1323       O  0.30908875  0.55180964  0.31862497    -0.66900
Ni1324     Ni  0.30515924  0.45198915  0.32375062     1.27400
Ni1325     Ni  0.31239594  0.48214583  0.21761161     1.26100
H1326       H  0.29769915  0.52239215  0.22632435     0.38200
O1327       O  0.31556541  0.56695838  0.73838197    -0.81700
O1328       O  0.31926229  0.44310879  0.71029791    -0.66400
O1329       O  0.30910885  0.51493190  0.73499511    -1.13000
C1330       C  0.32120050  0.49124801  0.90369709     1.05200
O1331       O  0.30382584  0.43082023  0.77180739    -0.79600
O1332       O  0.29026886  0.46648734  0.83435948    -0.67200
Ni1333     Ni  0.31910384  0.53959744  0.69193199     1.34900
C1334       C  0.28610853  0.49034997  0.83996815     0.83900
O1335       O  0.30910177  0.48170981  0.64999491    -0.80200
O1336       O  0.32365725  0.51622439  0.63779371    -0.90400
C1337       C  0.31163855  0.42546818  0.73275645     0.83500
O1338       O  0.33829731  0.53064691  0.72058256    -0.68600
O1339       O  0.31597538  0.46889490  0.88991593    -0.87900
C1340       C  0.34439254  0.50790790  0.71533425     0.84300
C1341       C  0.31571466  0.49765891  0.62045898     1.05900
H1342       H  0.33044483  0.47478873  0.79333162     0.37700
O1343       O  0.31954466  0.47775478  0.78987120    -1.10600
O1344       O  0.29486728  0.50979880  0.82912878    -0.67200
Ni1345     Ni  0.31592963  0.51382539  0.80467206     1.26300
O1346       O  0.33624562  0.48713556  0.70797842    -0.67500
O1347       O  0.32307825  0.51035117  0.87301267    -0.79800
C1348       C  0.31423140  0.57017150  0.78514520     0.83700
O1349       O  0.31352699  0.55120253  0.81636608    -0.66900
Ni1350     Ni  0.31018659  0.45123580  0.82918489     1.27400
Ni1351     Ni  0.31450628  0.47929910  0.72045374     1.26100
H1352       H  0.29812441  0.51714545  0.73300199     0.38200
O1353       O  0.42969660  0.18798711  0.27427573    -0.81700
O1354       O  0.43596462  0.30525794  0.22321415    -0.66400
O1355       O  0.44505397  0.23295047  0.24584569    -1.13000
C1356       C  0.44034799  0.25770214  0.41769496     1.05200
O1357       O  0.45221709  0.31761884  0.28238215    -0.79600
O1358       O  0.46653471  0.28471548  0.34742490    -0.67200
Ni1359     Ni  0.43353966  0.20607826  0.21289874     1.34900
C1360       C  0.47224086  0.26176497  0.34326627     0.83900
O1361       O  0.44299910  0.26483005  0.16146107    -0.80200
O1362       O  0.43617551  0.22260207  0.14924534    -0.90400
C1363       C  0.44402871  0.32287941  0.24428472     0.83500
O1364       O  0.41362577  0.22094969  0.21713274    -0.68600
O1365       O  0.44098488  0.28160057  0.40297224    -0.87900
C1366       C  0.40910689  0.24467522  0.21596886     0.84300
C1367       C  0.43970283  0.24534639  0.13272178     1.05900
H1368       H  0.42615474  0.27145125  0.31068239     0.37700
O1369       O  0.43701018  0.27031620  0.30398259    -1.10600
O1370       O  0.46469715  0.24211334  0.32611593    -0.67200
Ni1371     Ni  0.44305037  0.23484701  0.31721972     1.26300
O1372       O  0.41807131  0.26420491  0.22223799    -0.67500
O1373       O  0.44066342  0.23773283  0.38842076    -0.79800
C1374       C  0.44035244  0.18105146  0.30356863     0.83700
O1375       O  0.44846954  0.19845640  0.32513187    -0.66900
Ni1376     Ni  0.44620300  0.29832211  0.34102366     1.27400
Ni1377     Ni  0.43996496  0.26863861  0.23265074     1.26100
H1378       H  0.45573050  0.23028528  0.23736070     0.38200
O1379       O  0.43187450  0.18560104  0.76385210    -0.81700
O1380       O  0.43513500  0.30633748  0.72445356    -0.66400
O1381       O  0.44598490  0.23423126  0.74605159    -1.13000
C1382       C  0.43742045  0.25905112  0.91659814     1.05200
O1383       O  0.45277114  0.31711331  0.78028035    -0.79600
O1384       O  0.46635581  0.28405312  0.84763941    -0.67200
Ni1385     Ni  0.43726621  0.20630058  0.70723565     1.34900
C1386       C  0.47132571  0.26052770  0.84601166     0.83900
O1387       O  0.44292542  0.26733163  0.66153724    -0.80200
O1388       O  0.44159327  0.22379807  0.64593771    -0.90400
C1389       C  0.44383058  0.32349823  0.74455572     0.83500
O1390       O  0.41678034  0.21899268  0.70588138    -0.68600
O1391       O  0.44058209  0.28241129  0.90207935    -0.87900
C1392       C  0.41068670  0.24155689  0.71117378     0.84300
C1393       C  0.44271294  0.24759823  0.63178924     1.05900
H1394       H  0.42593949  0.27329610  0.80935965     0.37700
O1395       O  0.43668835  0.27129996  0.80315198    -1.10600
O1396       O  0.46316532  0.24121280  0.83142184    -0.67200
Ni1397     Ni  0.44175850  0.23576779  0.81666920     1.26300
O1398       O  0.41828281  0.26223937  0.72275066    -0.67500
O1399       O  0.43707703  0.23931007  0.88664650    -0.79800
C1400       C  0.43920410  0.18121233  0.80386711     0.83700
O1401       O  0.44626530  0.19930331  0.82713205    -0.66900
Ni1402     Ni  0.44636170  0.29875226  0.84002341     1.27400
Ni1403     Ni  0.43991496  0.26978249  0.73260253     1.26100
H1404       H  0.45696942  0.23319249  0.74123179     0.38200
O1405       O  0.32543599  0.18667713  0.12647265    -0.81700
O1406       O  0.31685130  0.30353850  0.17576687    -0.66400
O1407       O  0.30886424  0.23095630  0.15216350    -1.13000
C1408       C  0.31366948  0.25685611  0.98085334     1.05200
O1409       O  0.29938054  0.31430766  0.11923398    -0.79600
O1410       O  0.28637562  0.28025340  0.05086874    -0.67200
Ni1411     Ni  0.31972321  0.20412493  0.18712667     1.34900
C1412       C  0.28145714  0.25674181  0.05461710     0.83900
O1413       O  0.31148658  0.26316068  0.23770988    -0.80200
O1414       O  0.31468830  0.21958346  0.25041733    -0.90400
C1415       C  0.30806731  0.32049003  0.15587702     0.83500
O1416       O  0.33950267  0.22021538  0.18860519    -0.68600
O1417       O  0.31226374  0.28060514  0.99652068    -0.87900
C1418       C  0.34417299  0.24369090  0.18262861     0.84300
C1419       C  0.31266674  0.24305942  0.26633804     1.05900
H1420       H  0.32678514  0.27107038  0.08772337     0.37700
O1421       O  0.31599813  0.26887638  0.09488693    -1.10600
O1422       O  0.28958976  0.23778505  0.07127037    -0.67200
Ni1423     Ni  0.31138634  0.23303564  0.08075102     1.26300
O1424       O  0.33533876  0.26291415  0.17281427    -0.67500
O1425       O  0.31389318  0.23670459  0.00956298    -0.79800
C1426       C  0.31581821  0.17922479  0.09386434     0.83700
O1427       O  0.30763565  0.19618089  0.07134188    -0.66900
Ni1428     Ni  0.30607539  0.29624561  0.05909066     1.27400
Ni1429     Ni  0.31347756  0.26685194  0.16615390     1.26100
H1430       H  0.29811075  0.22836586  0.15944080     0.38200
O1431       O  0.32565000  0.18635288  0.62208524    -0.81700
O1432       O  0.31887387  0.30125393  0.67670354    -0.66400
O1433       O  0.30930579  0.22955383  0.65254639    -1.13000
C1434       C  0.31160363  0.25706334  0.48152268     1.05200
O1435       O  0.30020530  0.31263738  0.62490505    -0.79600
O1436       O  0.28558882  0.28037441  0.55672540    -0.67200
Ni1437     Ni  0.32028162  0.20198664  0.68488434     1.34900
C1438       C  0.28061038  0.25687706  0.55923292     0.83900
O1439       O  0.31388125  0.26036741  0.73835365    -0.80200
O1440       O  0.31560648  0.21633555  0.74959426    -0.90400
C1441       C  0.30990342  0.31853379  0.65886284     0.83500
O1442       O  0.34016904  0.21732875  0.68765319    -0.68600
O1443       O  0.31029278  0.28065892  0.49812377    -0.87900
C1444       C  0.34521860  0.24039466  0.68025153     0.84300
C1445       C  0.31444236  0.23988384  0.76629723     1.05900
H1446       H  0.32660343  0.26965809  0.58589659     0.37700
O1447       O  0.31595177  0.26765732  0.59511609    -1.10600
O1448       O  0.28878662  0.23765616  0.57473976    -0.67200
Ni1449     Ni  0.31070720  0.23220017  0.58084462     1.26300
O1450       O  0.33668610  0.25986941  0.66924626    -0.67500
O1451       O  0.31227192  0.23657547  0.50941597    -0.79800
C1452       C  0.31535056  0.17870276  0.59198794     0.83700
O1453       O  0.30656506  0.19546786  0.57141392    -0.66900
Ni1454     Ni  0.30553130  0.29560422  0.56253322     1.27400
Ni1455     Ni  0.31475819  0.26490373  0.66671341     1.26100
H1456       H  0.29863986  0.22743709  0.66158395     0.38200
O1457       O  0.43348238  0.68287410  0.01292299    -0.81700
O1458       O  0.43220965  0.80646301  0.97061713    -0.66400
O1459       O  0.44269653  0.73443893  0.99650716    -1.13000
C1460       C  0.43684749  0.76460664  0.16614776     1.05200
O1461       O  0.45070205  0.81784749  0.02201055    -0.79600
O1462       O  0.46433264  0.78609188  0.09240544    -0.67200
Ni1463     Ni  0.43152079  0.70802233  0.96055487     1.34900
C1464       C  0.46913789  0.76239558  0.09216466     0.83900
O1465       O  0.44074065  0.76650627  0.91169508    -0.80200
O1466       O  0.42869579  0.72850159  0.89994098    -0.90400
C1467       C  0.44144917  0.82376949  0.98686456     0.83500
O1468       O  0.41300928  0.72038736  0.98965809    -0.68600
O1469       O  0.43883210  0.78772902  0.14847754    -0.87900
C1470       C  0.40697272  0.74215018  0.97769122     0.84300
C1471       C  0.43485301  0.74933105  0.88292114     1.05900
H1472       H  0.42320362  0.77552189  0.05840938     0.37700
O1473       O  0.43400715  0.77314862  0.05179493    -1.10600
O1474       O  0.46079712  0.74300557  0.07897594    -0.67200
Ni1475     Ni  0.43914451  0.73780193  0.06818584     1.26300
O1476       O  0.41513140  0.76279057  0.97067027    -0.67500
O1477       O  0.43596778  0.74359949  0.13917825    -0.79800
C1478       C  0.43871222  0.68132118  0.05712062     0.83700
O1479       O  0.44312525  0.70125104  0.08244309    -0.66900
Ni1480     Ni  0.44441475  0.80152420  0.08423508     1.27400
Ni1481     Ni  0.43699518  0.77014084  0.98161464     1.26100
H1482       H  0.45351209  0.73209101  0.98973986     0.38200
O1483       O  0.43545676  0.68414274  0.50973638    -0.81700
O1484       O  0.43389330  0.80801827  0.47200043    -0.66400
O1485       O  0.44395770  0.73606283  0.49644277    -1.13000
C1486       C  0.43689996  0.76389359  0.66717076     1.05200
O1487       O  0.45132671  0.81992559  0.52763875    -0.79600
O1488       O  0.46470981  0.78666136  0.59513099    -0.67200
Ni1489     Ni  0.43317043  0.70993294  0.45866544     1.34900
C1490       C  0.46935595  0.76289240  0.59456324     0.83900
O1491       O  0.44241774  0.76876700  0.41206041    -0.80200
O1492       O  0.43022710  0.73108362  0.39915144    -0.90400
C1493       C  0.44274369  0.82532387  0.49050596     0.83500
O1494       O  0.41442550  0.72163350  0.48755890    -0.68600
O1495       O  0.43926129  0.78721049  0.65114602    -0.87900
C1496       C  0.40838792  0.74369279  0.47710730     0.84300
C1497       C  0.43632758  0.75206566  0.38266005     1.05900
H1498       H  0.42396548  0.77661937  0.55820886     0.37700
O1499       O  0.43482660  0.77427262  0.55247765    -1.10600
O1500       O  0.46106939  0.74369398  0.58067436    -0.67200
Ni1501     Ni  0.43967492  0.73875224  0.56780307     1.26300
O1502       O  0.41656231  0.76440062  0.47055623    -0.67500
O1503       O  0.43583230  0.74350568  0.63870373    -0.79800
C1504       C  0.44032187  0.68258529  0.55437102     0.83700
O1505       O  0.44377991  0.70244639  0.58111596    -0.66900
Ni1506     Ni  0.44486788  0.80217076  0.58787664     1.27400
Ni1507     Ni  0.43839804  0.77176295  0.48226540     1.26100
H1508       H  0.45483980  0.73379275  0.49070037     0.38200
O1509       O  0.32444012  0.68879727  0.36645774    -0.81700
O1510       O  0.31675009  0.80515914  0.41936294    -0.66400
O1511       O  0.30819479  0.73302843  0.39378628    -1.13000
C1512       C  0.31248114  0.76106053  0.22334984     1.05200
O1513       O  0.29846076  0.81541667  0.36521736    -0.79600
O1514       O  0.28565872  0.78319787  0.29355048    -0.67200
Ni1515     Ni  0.31824368  0.70526455  0.42805486     1.34900
C1516       C  0.28072175  0.75970056  0.29675416     0.83900
O1517       O  0.31171441  0.76407348  0.48049822    -0.80200
O1518       O  0.31280487  0.72003124  0.49190474    -0.90400
C1519       C  0.30738334  0.82179779  0.40106857     0.83500
O1520       O  0.33802215  0.72065256  0.43389785    -0.68600
O1521       O  0.31154002  0.78466508  0.24019577    -0.87900
C1522       C  0.34354047  0.74354560  0.42766298     0.84300
C1523       C  0.31194948  0.74363776  0.50855479     1.05900
H1524       H  0.32618623  0.77341643  0.32998403     0.37700
O1525       O  0.31543119  0.77125432  0.33765027    -1.10600
O1526       O  0.28872616  0.74076509  0.31399972    -0.67200
Ni1527     Ni  0.31051217  0.73575955  0.32233007     1.26300
O1528       O  0.33539182  0.76335107  0.41489520    -0.67500
O1529       O  0.31266723  0.74049761  0.25115233    -0.79800
C1530       C  0.31494112  0.68189619  0.33287544     0.83700
O1531       O  0.30657021  0.69901106  0.31153537    -0.66900
Ni1532     Ni  0.30530168  0.79906132  0.30372634     1.27400
Ni1533     Ni  0.31336486  0.76848018  0.40896434     1.26100
H1534       H  0.29740567  0.73104719  0.40112771     0.38200
O1535       O  0.32238890  0.68620514  0.87168730    -0.81700
O1536       O  0.31797586  0.80306431  0.91869208    -0.66400
O1537       O  0.30693250  0.73198356  0.89455194    -1.13000
C1538       C  0.31244947  0.75872762  0.72392646     1.05200
O1539       O  0.29988129  0.81525173  0.86531599    -0.79600
O1540       O  0.28582320  0.78270274  0.79555548    -0.67200
Ni1541     Ni  0.31581733  0.70382146  0.93133414     1.34900
C1542       C  0.28068025  0.75924703  0.79690056     0.83900
O1543       O  0.31135940  0.76332889  0.98050313    -0.80200
O1544       O  0.30996238  0.71951447  0.99371069    -0.90400
C1545       C  0.30907892  0.82054195  0.90114364     0.83500
O1546       O  0.33590823  0.71784820  0.93936235    -0.68600
O1547       O  0.31125569  0.78233144  0.74051138    -0.87900
C1548       C  0.34212553  0.73989719  0.93001993     0.84300
C1549       C  0.31043651  0.74329433  0.00930839     1.05900
H1550       H  0.32615867  0.77101114  0.83022959     0.37700
O1551       O  0.31536996  0.76932845  0.83784926    -1.10600
O1552       O  0.28848121  0.73982817  0.81290742    -0.67200
Ni1553     Ni  0.31002154  0.73399265  0.82326558     1.26300
O1554       O  0.33469081  0.75972459  0.91400439    -0.67500
O1555       O  0.31283590  0.73818039  0.75192029    -0.79800
C1556       C  0.31336033  0.68002497  0.83639939     0.83700
O1557       O  0.30563443  0.69741412  0.81338937    -0.66900
Ni1558     Ni  0.30579281  0.79759890  0.80390740     1.27400
Ni1559     Ni  0.31308881  0.76700668  0.90890357     1.26100
H1560       H  0.29603269  0.73108760  0.90091800     0.38200
O1561       O  0.42836300  0.06399405  0.36697827    -0.81700
O1562       O  0.43631549  0.94730129  0.42344152    -0.66400
O1563       O  0.44389080  0.01927869  0.39680467    -1.13000
C1564       C  0.44079668  0.98953328  0.22684422     1.05200
O1565       O  0.45421598  0.93530118  0.36951465    -0.79600
O1566       O  0.46794898  0.96858426  0.30047791    -0.67200
Ni1567     Ni  0.43182016  0.04591381  0.42869839     1.34900
C1568       C  0.47243147  0.99244960  0.30280969     0.83900
O1569       O  0.44244562  0.98833840  0.48299080    -0.80200
O1570       O  0.43416790  0.02985707  0.49338077    -0.90400
C1571       C  0.44499707  0.92979828  0.40500064     0.83500
O1572       O  0.41222436  0.03010291  0.42174801    -0.68600
O1573       O  0.44274291  0.96625526  0.24367424    -0.87900
C1574       C  0.40817460  0.00622076  0.42547031     0.84300
C1575       C  0.43844377  0.00766019  0.51093593     1.05900
H1576       H  0.42649031  0.97735741  0.33355672     0.37700
O1577       O  0.43722556  0.97997776  0.34098816    -1.10600
O1578       O  0.46389654  0.01105464  0.31861617    -0.67200
Ni1579     Ni  0.44204449  0.01554701  0.32540582     1.26300
O1580       O  0.41758075  0.98703317  0.42151722    -0.67500
O1581       O  0.44001383  0.01029657  0.25425128    -0.79800
C1582       C  0.43890475  0.06982110  0.33639462     0.83700
O1583       O  0.44649540  0.05187131  0.31449274    -0.66900
Ni1584     Ni  0.44819854  0.95222821  0.30779075     1.27400
Ni1585     Ni  0.43965362  0.98355089  0.41210598     1.26100
H1586       H  0.45448266  0.02270229  0.40528615     0.38200
O1587       O  0.42476496  0.06257299  0.87856169    -0.81700
O1588       O  0.43382637  0.94598951  0.91991062    -0.66400
O1589       O  0.44208371  0.01877960  0.90029260    -1.13000
C1590       C  0.43654487  0.99531674  0.72780359     1.05200
O1591       O  0.45135540  0.93488998  0.86337254    -0.79600
O1592       O  0.46532140  0.97095660  0.80143879    -0.67200
Ni1593     Ni  0.43131418  0.04520715  0.93771123     1.34900
C1594       C  0.46963581  0.99487280  0.80307557     0.83900
O1595       O  0.43925042  0.98595012  0.98398974    -0.80200
O1596       O  0.43684477  0.02952154  0.99985311    -0.90400
C1597       C  0.44273245  0.92899569  0.90036257     0.83500
O1598       O  0.41174250  0.02891045  0.94012287    -0.68600
O1599       O  0.44045346  0.97217148  0.74202586    -0.87900
C1600       C  0.40683465  0.00595279  0.93028416     0.84300
C1601       C  0.43854928  0.00574808  0.01384548     1.05900
H1602       H  0.42424563  0.97845981  0.83335695     0.37700
O1603       O  0.43495502  0.98126369  0.84099939    -1.10600
O1604       O  0.46074469  0.01364871  0.81652376    -0.67200
Ni1605     Ni  0.43892308  0.01752702  0.82903942     1.26300
O1606       O  0.41547587  0.98686790  0.91778299    -0.67500
O1607       O  0.43511179  0.01469755  0.75825461    -0.79800
C1608       C  0.43418024  0.07101204  0.84663466     0.83700
O1609       O  0.44227025  0.05472519  0.82178362    -0.66900
Ni1610     Ni  0.44559709  0.95486108  0.80411780     1.27400
Ni1611     Ni  0.43736497  0.98276230  0.91221970     1.26100
H1612       H  0.45288966  0.02122476  0.90688768     0.38200
O1613       O  0.31613310  0.06684732  0.99922108    -0.81700
O1614       O  0.31661915  0.94289365  0.96660956    -0.66400
O1615       O  0.30632488  0.01511418  0.98783611    -1.13000
C1616       C  0.31425465  0.99083120  0.15970764     1.05200
O1617       O  0.30026038  0.93101300  0.02505814    -0.79600
O1618       O  0.28671544  0.96533847  0.09119035    -0.67200
Ni1619     Ni  0.31681550  0.04067808  0.94790635     1.34900
C1620       C  0.28147813  0.98874151  0.08863175     0.83900
O1621       O  0.30698299  0.98057333  0.90554305    -0.80200
O1622       O  0.31842754  0.01867982  0.88871681    -0.90400
C1623       C  0.30868432  0.92525500  0.98770056     0.83500
O1624       O  0.33620880  0.02955207  0.97186494    -0.68600
O1625       O  0.31279202  0.96707455  0.14471869    -0.87900
C1626       C  0.34181729  0.00680572  0.96458474     0.84300
C1627       C  0.31229039  0.99717678  0.87468435     1.05900
H1628       H  0.32683006  0.97665109  0.05031027     0.37700
O1629       O  0.31596822  0.97825403  0.04536934    -1.10600
O1630       O  0.28928028  0.00809630  0.07254169    -0.67200
Ni1631     Ni  0.31067505  0.01388156  0.05910857     1.26300
O1632       O  0.33343764  0.98616644  0.96126146    -0.67500
O1633       O  0.31457262  0.01078808  0.13032692    -0.79800
C1634       C  0.31113416  0.06943705  0.04355753     0.83700
O1635       O  0.30639957  0.05040489  0.07011199    -0.66900
Ni1636     Ni  0.30682058  0.95057753  0.08323305     1.27400
Ni1637     Ni  0.31179447  0.97914913  0.97535223     1.26100
H1638       H  0.29542351  0.01720556  0.98232181     0.38200
O1639       O  0.32514417  0.05956549  0.52198740    -0.81700
O1640       O  0.31493646  0.94531251  0.46280505    -0.66400
O1641       O  0.30799460  0.01767538  0.48964071    -1.13000
C1642       C  0.30805897  0.98736466  0.65947194     1.05200
O1643       O  0.29547100  0.93501439  0.51181706    -0.79600
O1644       O  0.28123399  0.96898250  0.57854141    -0.67200
Ni1645     Ni  0.32010239  0.04426651  0.45845544     1.34900
C1646       C  0.27737886  0.99318629  0.57719757     0.83900
O1647       O  0.31215924  0.98690345  0.40298247    -0.80200
O1648       O  0.31610703  0.03039968  0.39238122    -0.90400
C1649       C  0.30533513  0.92857241  0.47864456     0.83500
O1650       O  0.33941349  0.02701950  0.45929369    -0.68600
O1651       O  0.30509874  0.96457991  0.64127131    -0.87900
C1652       C  0.34365190  0.00338699  0.46591177     0.84300
C1653       C  0.31405929  0.00710388  0.37519834     1.05900
H1654       H  0.32305583  0.97426324  0.55579627     0.37700
O1655       O  0.31262568  0.97795644  0.54572402    -1.10600
O1656       O  0.28674553  0.01142554  0.56557297    -0.67200
Ni1657     Ni  0.30886343  0.01385532  0.56153871     1.26300
O1658       O  0.33436975  0.98453576  0.47414077    -0.67500
O1659       O  0.30998237  0.00819211  0.63307621    -0.79800
C1660       C  0.31499007  0.06727849  0.55262812     0.83700
O1661       O  0.30603933  0.05079278  0.57293121    -0.66900
Ni1662     Ni  0.30055560  0.95106442  0.57553716     1.27400
Ni1663     Ni  0.31220456  0.98185209  0.47432134     1.26100
H1664       H  0.29748771  0.02110268  0.48008629     0.38200
C1665       C  0.32469319  0.99252160  0.79030134    -0.02700
C1666       C  0.31132443  0.99192229  0.82016777     0.07000
C1667       C  0.29691965  0.98859666  0.79708731    -0.02800
C1668       C  0.29591780  0.98639565  0.74453398    -0.02800
C1669       C  0.30916443  0.98937547  0.71458879     0.07100
C1670       C  0.32356756  0.99232330  0.73763936    -0.03000
Br1671     Br  0.34179173  0.99519516  0.69693513    -0.01500
Br1672     Br  0.34460199  0.99101793  0.82128921    -0.01600
Br1673     Br  0.27632842  0.97929029  0.71396744    -0.01600
Br1674     Br  0.27845602  0.98830537  0.83714528    -0.01500
C1675       C  0.30258938  0.98434473  0.24454798    -0.02700
C1676       C  0.31450556  0.99504315  0.21475543     0.07000
C1677       C  0.32648706  0.00906937  0.23798750    -0.02800
C1678       C  0.32637866  0.01302907  0.29043836    -0.02800
C1679       C  0.31415647  0.00316247  0.31997125     0.07100
C1680       C  0.30241366  0.98842939  0.29675045    -0.03000
Br1681     Br  0.28574003  0.97414253  0.33607896    -0.01500
Br1682     Br  0.28608259  0.96429490  0.21453830    -0.01600
Br1683     Br  0.34371450  0.03008619  0.32180988    -0.01600
Br1684     Br  0.34364016  0.02095349  0.19828927    -0.01500
C1685       C  0.38063940  0.01909304  0.90597085    -0.02700
C1686       C  0.39013421  0.00207207  0.93339092     0.07000
C1687       C  0.38366078  0.98478554  0.96873708    -0.02800
C1688       C  0.36779929  0.98604581  0.97910337    -0.02800
C1689       C  0.35850195  0.00498239  0.95479864     0.07100
C1690       C  0.36514308  0.02191678  0.91866679    -0.03000
Br1691     Br  0.35349482  0.04965717  0.88628804    -0.01500
Br1692     Br  0.38874700  0.03665397  0.84773674    -0.01600
Br1693     Br  0.35929152  0.96374980  0.03033242    -0.01600
Br1694     Br  0.39654572  0.95979189  0.00342352    -0.01500
C1695       C  0.43104650  0.97809765  0.64043704    -0.02700
C1696       C  0.43452982  0.99967192  0.67253982     0.07000
C1697       C  0.43775646  0.02445421  0.65045239    -0.02800
C1698       C  0.44050398  0.02625507  0.59852579    -0.02800
C1699       C  0.43788868  0.00430244  0.56655543     0.07100
C1700       C  0.43265352  0.98039001  0.58795925    -0.03000
Br1701     Br  0.42685305  0.95063656  0.54628870    -0.01500
Br1702     Br  0.42221168  0.94605067  0.66730390    -0.01600
Br1703     Br  0.44893022  0.05885132  0.57265933    -0.01600
Br1704     Br  0.43687255  0.05701434  0.68855639    -0.01500
C1705       C  0.42615385  0.00708898  0.09797657    -0.02700
C1706       C  0.43911215  0.00111638  0.06811183     0.07000
C1707       C  0.45253159  0.99126462  0.09037551    -0.02800
C1708       C  0.45278369  0.98607708  0.14206159    -0.02800
C1709       C  0.43995134  0.99259115  0.17214144     0.07100
C1710       C  0.42659749  0.00281933  0.14996742    -0.03000
Br1711     Br  0.40863821  0.00943252  0.19058240    -0.01500
Br1712     Br  0.40776295  0.02136369  0.06812466    -0.01600
Br1713     Br  0.47080534  0.97008773  0.17101236    -0.01600
Br1714     Br  0.47097045  0.98738638  0.05083791    -0.01500
C1715       C  0.38603005  0.01347554  0.48324588    -0.02700
C1716       C  0.39193646  0.00125960  0.43942058     0.07000
C1717       C  0.38209531  0.98582165  0.40922585    -0.02800
C1718       C  0.36631792  0.98409296  0.42105451    -0.02800
C1719       C  0.36030515  0.99831103  0.46226528     0.07100
C1720       C  0.37029404  0.01219315  0.49427391    -0.03000
Br1721     Br  0.36225557  0.02998551  0.55301332    -0.01500
Br1722     Br  0.39937309  0.03231200  0.52878816    -0.01600
Br1723     Br  0.35270630  0.96389244  0.37873187    -0.01600
Br1724     Br  0.38982758  0.96917750  0.34922668    -0.01500
C1725       C  0.32272940  0.86137847  0.92826492    -0.02700
C1726       C  0.30896306  0.84702191  0.92406079     0.07000
C1727       C  0.29514679  0.85793366  0.94204416    -0.02800
C1728       C  0.29501363  0.88332828  0.96348373    -0.02800
C1729       C  0.30877250  0.89802252  0.96716313     0.07100
C1730       C  0.32270401  0.88657999  0.95051088    -0.03000
Br1731     Br  0.34206904  0.90438612  0.96063887    -0.01500
Br1732     Br  0.34156846  0.84721838  0.90081694    -0.01600
Br1733     Br  0.27567746  0.89767087  0.98604903    -0.01600
Br1734     Br  0.27635878  0.83779644  0.93864763    -0.01500
C1735       C  0.32378805  0.73939741  0.64553683    -0.02700
C1736       C  0.31256778  0.75523870  0.66876367     0.07000
C1737       C  0.30108642  0.76745199  0.63909729    -0.02800
C1738       C  0.30087561  0.76372315  0.58674824    -0.02800
C1739       C  0.31190308  0.74735476  0.56367389     0.07100
C1740       C  0.32333914  0.73507230  0.59337600    -0.03000
Br1741     Br  0.33899003  0.71312410  0.56304419    -0.01500
Br1742     Br  0.34053146  0.72535937  0.68462933    -0.01600
Br1743     Br  0.28492014  0.78000671  0.54701263    -0.01600
Br1744     Br  0.28504854  0.78849678  0.66960272    -0.01500
C1745       C  0.30101316  0.76983866  0.13868333    -0.02700
C1746       C  0.31241640  0.75730887  0.16827030     0.07000
C1747       C  0.32292337  0.73986773  0.14535518    -0.02800
C1748       C  0.32218596  0.73521747  0.09337033    -0.02800
C1749       C  0.31076269  0.74765929  0.06401137     0.07100
C1750       C  0.30018321  0.76488388  0.08679821    -0.03000
Br1751     Br  0.28397234  0.78048195  0.04718736    -0.01500
Br1752     Br  0.28573954  0.79264677  0.16873900    -0.01600
Br1753     Br  0.33745855  0.71270804  0.06249211    -0.01600
Br1754     Br  0.33879362  0.72306656  0.18468712    -0.01500
C1755       C  0.29250488  0.86077533  0.43336359    -0.02700
C1756       C  0.30672268  0.84888172  0.42163037     0.07000
C1757       C  0.32038132  0.86333568  0.42777315    -0.02800
C1758       C  0.31993068  0.88899281  0.44787197    -0.02800
C1759       C  0.30566800  0.90135704  0.45800304     0.07100
C1760       C  0.29192140  0.88727524  0.44930754    -0.03000
Br1761     Br  0.27216369  0.90433985  0.45578021    -0.01500
Br1762     Br  0.27381511  0.84044843  0.43085737    -0.01600
Br1763     Br  0.33915388  0.90605052  0.46411422    -0.01600
Br1764     Br  0.33979050  0.84868234  0.40599553    -0.01500
C1765       C  0.45769700  0.86364204  0.45681596    -0.02700
C1766       C  0.44343012  0.85187158  0.46796628     0.07000
C1767       C  0.42974762  0.86594499  0.45900398    -0.02800
C1768       C  0.43025804  0.89106932  0.43703878    -0.02800
C1769       C  0.44454881  0.90296966  0.42634383     0.07100
C1770       C  0.45826356  0.88934321  0.43724294    -0.03000
Br1771     Br  0.47791507  0.90638032  0.42905541    -0.01500
Br1772     Br  0.47660282  0.84453618  0.46663883    -0.01600
Br1773     Br  0.41115249  0.90849259  0.42037689    -0.01600
Br1774     Br  0.41025281  0.85184031  0.48031841    -0.01500
C1775       C  0.36627523  0.76542718  0.47013854    -0.02700
C1776       C  0.36031105  0.74632205  0.43666396     0.07000
C1777       C  0.37014918  0.72652396  0.41807136    -0.02800
C1778       C  0.38516854  0.72398293  0.43617343    -0.02800
C1779       C  0.39161254  0.74423011  0.46635133     0.07100
C1780       C  0.38206573  0.76518137  0.48278294    -0.03000
Br1781     Br  0.39016010  0.79213978  0.52650894    -0.01500
Br1782     Br  0.35268261  0.79039125  0.50224761    -0.01600
Br1783     Br  0.39635636  0.69200804  0.41885452    -0.01600
Br1784     Br  0.36339371  0.70365729  0.36475014    -0.01500
C1785       C  0.44850726  0.76340881  0.80457498    -0.02700
C1786       C  0.43511574  0.75361880  0.82771456     0.07000
C1787       C  0.42215449  0.74774962  0.79755871    -0.02800
C1788       C  0.42293326  0.75003078  0.74493117    -0.02800
C1789       C  0.43611985  0.76051216  0.72227403     0.07100
C1790       C  0.44869484  0.76815659  0.75262181    -0.03000
Br1791     Br  0.46642583  0.78512582  0.72380735    -0.01500
Br1792     Br  0.46710924  0.76884304  0.84297054    -0.01600
Br1793     Br  0.40560905  0.74011876  0.70384482    -0.01600
Br1794     Br  0.40277730  0.73892267  0.82759037    -0.01500
C1795       C  0.44867584  0.77200214  0.25072501    -0.02700
C1796       C  0.43634911  0.76228837  0.22145213     0.07000
C1797       C  0.42364164  0.75094272  0.24530915    -0.02800
C1798       C  0.42322284  0.74930029  0.29801467    -0.02800
C1799       C  0.43607042  0.75693924  0.32741135     0.07100
C1800       C  0.44880919  0.76848570  0.30312763    -0.03000
Br1801     Br  0.46697910  0.77845042  0.34033642    -0.01500
Br1802     Br  0.46574070  0.78982429  0.21940769    -0.01600
Br1803     Br  0.40422149  0.73930289  0.32890635    -0.01600
Br1804     Br  0.40635900  0.73910572  0.20574281    -0.01500
C1805       C  0.44133570  0.87973332  0.89072240    -0.02700
C1806       C  0.44330014  0.90202621  0.92193647     0.07000
C1807       C  0.44493188  0.89849203  0.97414660    -0.02800
C1808       C  0.44431093  0.87306335  0.99517382    -0.02800
C1809       C  0.44193652  0.85065319  0.96417560     0.07100
C1810       C  0.44025953  0.85428877  0.91171974    -0.03000
Br1811     Br  0.43649961  0.82484919  0.86727024    -0.01500
Br1812     Br  0.43971692  0.88394483  0.81881255    -0.01600
Br1813     Br  0.44576749  0.86970913  0.06735893    -0.01600
Br1814     Br  0.44878142  0.92834888  0.01737561    -0.01500
C1815       C  0.36493688  0.76327231  0.96757816    -0.02700
C1816       C  0.35881747  0.74214020  0.93913817     0.07000
C1817       C  0.36849836  0.72141235  0.92353428    -0.02800
C1818       C  0.38389004  0.72074734  0.93880247    -0.02800
C1819       C  0.39026230  0.74223062  0.96621760     0.07100
C1820       C  0.38069593  0.76364967  0.97996132    -0.03000
Br1821     Br  0.38876715  0.79265767  0.01900106    -0.01500
Br1822     Br  0.35163578  0.79085505  0.99280801    -0.01600
Br1823     Br  0.39589209  0.68989985  0.92015779    -0.01600
Br1824     Br  0.36091190  0.69433437  0.87840393    -0.01500
C1825       C  0.31335318  0.14079707  0.53221726    -0.02700
C1826       C  0.31387042  0.15028150  0.58186046     0.07000
C1827       C  0.31390315  0.13232893  0.62240257    -0.02800
C1828       C  0.31439300  0.10503454  0.61313534    -0.02800
C1829       C  0.31376982  0.09562264  0.56348464     0.07100
C1830       C  0.31278114  0.11352952  0.52314872    -0.03000
Br1831     Br  0.31027643  0.10085000  0.45513697    -0.01500
Br1832     Br  0.31474664  0.16478473  0.47631727    -0.01600
Br1833     Br  0.31717809  0.08079360  0.66817964    -0.01600
Br1834     Br  0.31280685  0.14484596  0.69094039    -0.01500
C1835       C  0.32771448  0.13449253  0.08192776    -0.02700
C1836       C  0.31444249  0.15071232  0.08257205     0.07000
C1837       C  0.29979684  0.13908062  0.07607007    -0.02800
C1838       C  0.29854554  0.11180483  0.06682706    -0.02800
C1839       C  0.31181740  0.09614016  0.06435367     0.07100
C1840       C  0.32633644  0.10733514  0.07269807    -0.03000
Br1841     Br  0.34445138  0.08517962  0.07011256    -0.01500
Br1842     Br  0.34805975  0.14894979  0.09104196    -0.01600
Br1843     Br  0.27874911  0.09583303  0.05564472    -0.01600
Br1844     Br  0.28125906  0.15982831  0.08190930    -0.01500
C1845       C  0.30260361  0.25938546  0.84330475    -0.02700
C1846       C  0.31407230  0.24356427  0.82129533     0.07000
C1847       C  0.32534275  0.23153419  0.85197006    -0.02800
C1848       C  0.32526519  0.23581228  0.90419875    -0.02800
C1849       C  0.31413095  0.25252373  0.92596571     0.07100
C1850       C  0.30272387  0.26416105  0.89526615    -0.03000
Br1851     Br  0.28650663  0.28549898  0.92399360    -0.01500
Br1852     Br  0.28594873  0.27283917  0.80277324    -0.01600
Br1853     Br  0.34078976  0.21940312  0.94551813    -0.01600
Br1854     Br  0.34133544  0.20980269  0.82289963    -0.01500
C1855       C  0.32384744  0.23515995  0.35152859    -0.02700
C1856       C  0.31229835  0.24683826  0.32134697     0.07000
C1857       C  0.30048466  0.26162816  0.34414212    -0.02800
C1858       C  0.30002215  0.26423530  0.39668433    -0.02800
C1859       C  0.31186978  0.25340327  0.42656812     0.07100
C1860       C  0.32378182  0.23894650  0.40379347    -0.03000
Br1861     Br  0.34048731  0.22541964  0.44395465    -0.01500
Br1862     Br  0.34027110  0.21458742  0.32195271    -0.01600
Br1863     Br  0.28244215  0.28100607  0.42742629    -0.01600
Br1864     Br  0.28447385  0.27734324  0.30383532    -0.01500
C1865       C  0.45160506  0.13883843  0.82898777    -0.02700
C1866       C  0.43830894  0.15441007  0.82392000     0.07000
C1867       C  0.42371986  0.14308068  0.83010007    -0.02800
C1868       C  0.42232837  0.11592161  0.83832158    -0.02800
C1869       C  0.43559072  0.09976708  0.83949878     0.07100
C1870       C  0.45024962  0.11157832  0.83767088    -0.03000
Br1871     Br  0.46846933  0.09103142  0.85115171    -0.01500
Br1872     Br  0.47162131  0.15437754  0.82056089    -0.01600
Br1873     Br  0.40201236  0.10162942  0.84697332    -0.01600
Br1874     Br  0.40547473  0.16491695  0.82609483    -0.01500
C1875       C  0.36811781  0.25656405  0.72783441    -0.02700
C1876       C  0.36191609  0.24423351  0.68489944     0.07000
C1877       C  0.37170799  0.23231591  0.64957401    -0.02800
C1878       C  0.38764557  0.23190000  0.65771094    -0.02800
C1879       C  0.39393975  0.24347558  0.70166470     0.07100
C1880       C  0.38405838  0.25569992  0.73678990    -0.03000
Br1881     Br  0.39199149  0.26849467  0.79990900    -0.01500
Br1882     Br  0.35468603  0.27376533  0.77537051    -0.01600
Br1883     Br  0.40061579  0.21502134  0.60813189    -0.01600
Br1884     Br  0.36309808  0.21667562  0.58961243    -0.01500
C1885       C  0.44400002  0.11500204  0.36809196    -0.02700
C1886       C  0.44197596  0.09780358  0.32684036     0.07000
C1887       C  0.44169421  0.10785290  0.27780391    -0.02800
C1888       C  0.44261873  0.13521396  0.27036634    -0.02800
C1889       C  0.44272872  0.15263411  0.31204925     0.07100
C1890       C  0.44367417  0.14241621  0.36098304    -0.03000
Br1891     Br  0.44274703  0.16540051  0.41872649    -0.01500
Br1892     Br  0.44749812  0.10095909  0.43446890    -0.01600
Br1893     Br  0.44376731  0.14864050  0.20269864    -0.01600
Br1894     Br  0.43870399  0.08458702  0.22104929    -0.01500
C1895       C  0.45209837  0.23865526  0.49485251    -0.02700
C1896       C  0.44018450  0.25334658  0.47220186     0.07000
C1897       C  0.42937281  0.26670000  0.50230046    -0.02800
C1898       C  0.43065956  0.26600596  0.55480184    -0.02800
C1899       C  0.44281916  0.25193027  0.57737247     0.07100
C1900       C  0.45346544  0.23816676  0.54729502    -0.03000
Br1901     Br  0.47022860  0.21913004  0.57808399    -0.01500
Br1902     Br  0.46701470  0.21978905  0.45479005    -0.01600
Br1903     Br  0.41510649  0.28299413  0.59534721    -0.01600
Br1904     Br  0.41221925  0.28457084  0.47143949    -0.01500
C1905       C  0.43345072  0.27313051  0.05695349    -0.02700
C1906       C  0.43889408  0.24907765  0.07729470     0.07000
C1907       C  0.44115609  0.22725344  0.04453140    -0.02800
C1908       C  0.43799913  0.22951963  0.99301293    -0.02800
C1909       C  0.43524319  0.25468531  0.97171225     0.07100
C1910       C  0.43220386  0.27624748  0.00456104    -0.03000
Br1911     Br  0.42482181  0.30980896  0.97934441    -0.01500
Br1912     Br  0.42625993  0.30148869  0.10001864    -0.01600
Br1913     Br  0.43602252  0.19711131  0.95448293    -0.01600
Br1914     Br  0.44925964  0.19387428  0.06831363    -0.01500
C1915       C  0.38284074  0.26269522  0.23693767    -0.02700
C1916       C  0.39272863  0.24914306  0.20378857     0.07000
C1917       C  0.38668915  0.23789371  0.15935505    -0.02800
C1918       C  0.37076494  0.23698440  0.15165136    -0.02800
C1919       C  0.36080166  0.24847847  0.18696305     0.07100
C1920       C  0.36687015  0.26273785  0.22801050    -0.03000
Br1921     Br  0.35328266  0.28147405  0.27284997    -0.01500
Br1922     Br  0.39101041  0.27991672  0.29571302    -0.01600
Br1923     Br  0.36249013  0.22026521  0.09228894    -0.01600
Br1924     Br  0.40020058  0.22468297  0.10764388    -0.01500
C1925       C  0.30242332  0.60815053  0.83229499    -0.02700
C1926       C  0.31420895  0.59792005  0.80169853     0.07000
C1927       C  0.32523309  0.61522931  0.78070064    -0.02800
C1928       C  0.32426536  0.64239372  0.78974299    -0.02800
C1929       C  0.31274674  0.65237614  0.82112751     0.07100
C1930       C  0.30195199  0.63534011  0.84306922    -0.03000
Br1931     Br  0.28666815  0.64937431  0.88827079    -0.01500
Br1932     Br  0.28622902  0.58566476  0.85583705    -0.01600
Br1933     Br  0.33876974  0.66613402  0.75926357    -0.01600
Br1934     Br  0.34200831  0.60217260  0.73980538    -0.01500
C1935       C  0.29709010  0.38493425  0.70855009    -0.02700
C1936       C  0.31121950  0.39836941  0.71249262     0.07000
C1937       C  0.32497993  0.38527530  0.69959793    -0.02800
C1938       C  0.32452720  0.35924965  0.68119620    -0.02800
C1939       C  0.31042413  0.34567532  0.67857590     0.07100
C1940       C  0.29677336  0.35838340  0.69345702    -0.03000
Br1941     Br  0.27771813  0.33902814  0.69656763    -0.01500
Br1942     Br  0.27794267  0.40298340  0.72122314    -0.01600
Br1943     Br  0.34322038  0.34274793  0.65766997    -0.01600
Br1944     Br  0.34459524  0.40213849  0.71009336    -0.01500
C1945       C  0.32762842  0.63966742  0.31039202    -0.02700
C1946       C  0.31398252  0.65367442  0.31975160     0.07000
C1947       C  0.29998588  0.63985837  0.32380444    -0.02800
C1948       C  0.29979172  0.61213591  0.31830495    -0.02800
C1949       C  0.31368161  0.59822282  0.31185996     0.07100
C1950       C  0.32763514  0.61209719  0.31026653    -0.03000
Br1951     Br  0.34689310  0.59316546  0.30728769    -0.01500
Br1952     Br  0.34585705  0.65799973  0.28986176    -0.01600
Br1953     Br  0.28056189  0.59346552  0.31699736    -0.01600
Br1954     Br  0.28112686  0.65877537  0.33629755    -0.01500
C1955       C  0.31851026  0.47058538  0.54136763    -0.02700
C1956       C  0.31538367  0.49494460  0.56489623     0.07000
C1957       C  0.31471474  0.51812877  0.53528492    -0.02800
C1958       C  0.31681252  0.51688693  0.48295682    -0.02800
C1959       C  0.31824998  0.49206437  0.45856477     0.07100
C1960       C  0.32034859  0.46923929  0.48880351    -0.03000
Br1961     Br  0.32792887  0.43656354  0.46004502    -0.01500
Br1962     Br  0.32105953  0.43903112  0.58102487    -0.01600
Br1963     Br  0.31916162  0.54993335  0.44728751    -0.01600
Br1964     Br  0.31029534  0.55217702  0.56574518    -0.01500
C1965       C  0.32206034  0.51997569  0.98207326    -0.02700
C1966       C  0.32371082  0.49488563  0.95905954     0.07000
C1967       C  0.32478672  0.47231600  0.99048755    -0.02800
C1968       C  0.32176540  0.47426192  0.04237666    -0.02800
C1969       C  0.31844887  0.49901102  0.06431095     0.07100
C1970       C  0.31872264  0.52184541  0.03372973    -0.03000
Br1971     Br  0.31306865  0.55595534  0.06126427    -0.01500
Br1972     Br  0.32463493  0.55236044  0.94460867    -0.01600
Br1973     Br  0.32241650  0.44271011  0.08289105    -0.01600
Br1974     Br  0.33175724  0.43869631  0.96392696    -0.01500
C1975       C  0.32112721  0.38800048  0.20055143    -0.02700
C1976       C  0.30693367  0.40079775  0.20904192     0.07000
C1977       C  0.29313122  0.38670623  0.20183169    -0.02800
C1978       C  0.29355409  0.36003732  0.18695789    -0.02800
C1979       C  0.30769014  0.34769784  0.17610009     0.07100
C1980       C  0.32149087  0.36176022  0.18313720    -0.03000
Br1981     Br  0.34101909  0.34561494  0.16719779    -0.01500
Br1982     Br  0.34026302  0.40575864  0.21505214    -0.01600
Br1983     Br  0.27476570  0.33999016  0.18500036    -0.01600
Br1984     Br  0.27350564  0.40401499  0.20915882    -0.01500
C1985       C  0.42826715  0.61412339  0.58844877    -0.02700
C1986       C  0.44244114  0.60230566  0.60000875     0.07000
C1987       C  0.45601572  0.61727881  0.59946554    -0.02800
C1988       C  0.45544894  0.64406876  0.58587851    -0.02800
C1989       C  0.44118745  0.65597280  0.57530001     0.07100
C1990       C  0.42758673  0.64108296  0.57754211    -0.03000
Br1991     Br  0.40792052  0.65790981  0.56697742    -0.01500
Br1992     Br  0.40979017  0.59314028  0.58651811    -0.01600
Br1993     Br  0.47416641  0.66395357  0.57950380    -0.01600
Br1994     Br  0.47518641  0.60119363  0.61877323    -0.01500
C1995       C  0.44530035  0.39847291  0.74255306    -0.02700
C1996       C  0.44466091  0.40372888  0.69061930     0.07000
C1997       C  0.44397596  0.38241533  0.65632484    -0.02800
C1998       C  0.44441881  0.35623656  0.67375486    -0.02800
C1999       C  0.44407348  0.35102041  0.72573230     0.07100
C2000       C  0.44431728  0.37237228  0.76006374    -0.03000
Br2001     Br  0.44258062  0.36634260  0.83146436    -0.01500
Br2002     Br  0.44865963  0.42658700  0.79026105    -0.01600
Br2003     Br  0.44687706  0.32790686  0.62587937    -0.01600
Br2004     Br  0.44159299  0.38872385  0.58526139    -0.01500
C2005       C  0.38594898  0.52749237  0.73402343    -0.02700
C2006       C  0.39377200  0.51037840  0.70039925     0.07000
C2007       C  0.38532864  0.49101054  0.67403607    -0.02800
C2008       C  0.36921429  0.48968034  0.67913612    -0.02800
C2009       C  0.36148292  0.50638076  0.71377706     0.07100
C2010       C  0.37017480  0.52420040  0.74308023    -0.03000
Br2011     Br  0.36077302  0.54306910  0.79849982    -0.01500
Br2012     Br  0.39646043  0.55604606  0.76822480    -0.01600
Br2013     Br  0.35800137  0.46611445  0.63536239    -0.01600
Br2014     Br  0.39554562  0.46753822  0.62751372    -0.01500
C2015       C  0.42502491  0.61324510  0.08954106    -0.02700
C2016       C  0.43899852  0.59973478  0.09747986     0.07000
C2017       C  0.45294369  0.61393851  0.09715841    -0.02800
C2018       C  0.45291484  0.64128286  0.08717847    -0.02800
C2019       C  0.43895216  0.65455365  0.07855744     0.07100
C2020       C  0.42501315  0.64054271  0.08087774    -0.03000
Br2021     Br  0.40573871  0.65894110  0.07202359    -0.01500
Br2022     Br  0.40577225  0.59428875  0.08784947    -0.01600
Br2023     Br  0.47199297  0.66033188  0.08306228    -0.01600
Br2024     Br  0.47203249  0.59633323  0.11230093    -0.01500
C2025       C  0.45320653  0.48646421  0.91771335    -0.02700
C2026       C  0.44025431  0.49326835  0.94701702     0.07000
C2027       C  0.42643952  0.49995845  0.92319130    -0.02800
C2028       C  0.42572822  0.50033989  0.87043709    -0.02800
C2029       C  0.43922726  0.49724822  0.84151309     0.07100
C2030       C  0.45299723  0.49015064  0.86554466    -0.03000
Br2031     Br  0.47183979  0.48663165  0.82785594    -0.01500
Br2032     Br  0.47111742  0.47083848  0.94782973    -0.01600
Br2033     Br  0.40601502  0.50128414  0.83834461    -0.01600
Br2034     Br  0.40833575  0.50684489  0.96289031    -0.01500
C2035       C  0.43002745  0.48809601  0.36475255    -0.02700
C2036       C  0.44075923  0.50533903  0.34250431     0.07000
C2037       C  0.44998813  0.52153562  0.37323981    -0.02800
C2038       C  0.44855925  0.52054458  0.42577270    -0.02800
C2039       C  0.43798732  0.50298141  0.44810228     0.07100
C2040       C  0.42859931  0.48706618  0.41731538    -0.03000
Br2041     Br  0.41333188  0.46445043  0.44724969    -0.01500
Br2042     Br  0.41688371  0.46621951  0.32362790    -0.01600
Br2043     Br  0.46203346  0.54208551  0.46649414    -0.01600
Br2044     Br  0.46543678  0.54382570  0.34339341    -0.01500
C2045       C  0.45874863  0.36296815  0.21893935    -0.02700
C2046       C  0.44451812  0.34990392  0.22361705     0.07000
C2047       C  0.43080329  0.36344574  0.21182136    -0.02800
C2048       C  0.43133993  0.38997750  0.19641363    -0.02800
C2049       C  0.44554917  0.40328233  0.19365311     0.07100
C2050       C  0.45923910  0.38964266  0.20484072    -0.03000
Br2051     Br  0.47873027  0.40775515  0.20400342    -0.01500
Br2052     Br  0.47780128  0.34420335  0.22991519    -0.01600
Br2053     Br  0.41253505  0.40768403  0.17748153    -0.01600
Br2054     Br  0.41111045  0.34637963  0.21915228    -0.01500
C2055       C  0.38583112  0.51295185  0.25437759    -0.02700
C2056       C  0.39316496  0.50408727  0.21003571     0.07000
C2057       C  0.38433915  0.49223681  0.17181359    -0.02800
C2058       C  0.36823842  0.49074931  0.17651700    -0.02800
C2059       C  0.36082662  0.50075627  0.21984907     0.07100
C2060       C  0.36980229  0.51075045  0.25958698    -0.03000
Br2061     Br  0.36006664  0.52100450  0.32180166    -0.01500
Br2062     Br  0.39759541  0.52868835  0.30814048    -0.01600
Br2063     Br  0.35646850  0.47703672  0.12122467    -0.01600
Br2064     Br  0.39407259  0.48043534  0.11061369    -0.01500
C2065       C  0.25449611  0.51522337  0.92892411    -0.02700
C2066       C  0.24184380  0.49953908  0.91459837     0.07000
C2067       C  0.24384070  0.48106028  0.87494845    -0.02800
C2068       C  0.25784535  0.47977939  0.84810588    -0.02800
C2069       C  0.27060060  0.49509544  0.86306698     0.07100
C2070       C  0.26886424  0.51215385  0.90493625    -0.03000
Br2071     Br  0.28632975  0.52967720  0.93335610    -0.01500
Br2072     Br  0.25233674  0.54056634  0.98290647    -0.01600
Br2073     Br  0.25912405  0.45836741  0.78815906    -0.01600
Br2074     Br  0.22719133  0.45835566  0.85439498    -0.01500
C2075       C  0.23886205  0.48546207  0.36367538    -0.02700
C2076       C  0.23699040  0.50362676  0.40382119     0.07000
C2077       C  0.24958746  0.51930530  0.41841539    -0.02800
C2078       C  0.26382646  0.51689027  0.39340227    -0.02800
C2079       C  0.26577546  0.49858467  0.35352112     0.07100
C2080       C  0.25311460  0.48301443  0.33884304    -0.03000
Br2081     Br  0.25507695  0.45887859  0.28296601    -0.01500
Br2082     Br  0.22177474  0.46453494  0.34023287    -0.01600
Br2083     Br  0.28079117  0.53780076  0.41662827    -0.01600
Br2084     Br  0.24762528  0.54295923  0.47519410    -0.01500
C2085       C  0.20598825  0.50828418  0.71918960    -0.02700
C2086       C  0.19214967  0.50053410  0.69612724     0.07000
C2087       C  0.17893844  0.49670634  0.72595303    -0.02800
C2088       C  0.17986101  0.49845643  0.77854202    -0.02800
C2089       C  0.19361205  0.50659348  0.80136190     0.07100
C2090       C  0.20649330  0.51252430  0.77133453    -0.03000
Br2091     Br  0.22497638  0.52636979  0.80121120    -0.01500
Br2092     Br  0.22456323  0.51154956  0.68021770    -0.01600
Br2093     Br  0.16211273  0.49068017  0.81917321    -0.01600
Br2094     Br  0.15921604  0.49148285  0.69507092    -0.01500
C2095       C  0.17606724  0.49161104  0.27749260    -0.02700
C2096       C  0.18779228  0.50597610  0.30157934     0.07000
C2097       C  0.19988122  0.51666924  0.27245251    -0.02800
C2098       C  0.20063741  0.51186580  0.22050298    -0.02800
C2099       C  0.18902853  0.49735046  0.19640161     0.07100
C2100       C  0.17660973  0.48741765  0.22506437    -0.03000
Br2101     Br  0.15995658  0.46879874  0.19283143    -0.01500
Br2102     Br  0.15879004  0.47913020  0.31597787    -0.01600
Br2103     Br  0.21833330  0.52349407  0.18289363    -0.01600
Br2104     Br  0.21601292  0.53732506  0.30298958    -0.01500
C2105       C  0.13558810  0.51258334  0.55190582    -0.02700
C2106       C  0.14432637  0.49010184  0.56558615     0.07000
C2107       C  0.13700880  0.46979273  0.59333543    -0.02800
C2108       C  0.12148227  0.47219838  0.60732254    -0.02800
C2109       C  0.11254450  0.49387319  0.59123674     0.07100
C2110       C  0.11986773  0.51458698  0.56514745    -0.03000
Br2111     Br  0.10844711  0.54565303  0.54632130    -0.01500
Br2112     Br  0.14456091  0.53962334  0.51040231    -0.01600
Br2113     Br  0.11269603  0.44624230  0.65199863    -0.01600
Br2114     Br  0.14787552  0.43814828  0.61387448    -0.01500
C2115       C  0.07658279  0.51529834  0.92508953    -0.02700
C2116       C  0.06391452  0.50548319  0.95213666     0.07000
C2117       C  0.05004616  0.50050581  0.92734605    -0.02800
C2118       C  0.04900689  0.50457652  0.87555531    -0.02800
C2119       C  0.06222474  0.51010032  0.84717502     0.07100
C2120       C  0.07592494  0.51665690  0.87229138    -0.03000
Br2121     Br  0.09337987  0.52884778  0.83457330    -0.01500
Br2122     Br  0.09436673  0.52822384  0.96030622    -0.01600
Br2123     Br  0.02913784  0.50763187  0.84611462    -0.01600
Br2124     Br  0.03225517  0.48939391  0.96486383    -0.01500
C2125       C  0.05385213  0.51827734  0.37727985    -0.02700
C2126       C  0.06482092  0.50504085  0.34683062     0.07000
C2127       C  0.07549307  0.48786801  0.36937724    -0.02800
C2128       C  0.07550620  0.48450096  0.42183458    -0.02800
C2129       C  0.06441355  0.49740790  0.45206009     0.07100
C2130       C  0.05341284  0.51387480  0.42939458    -0.03000
Br2131     Br  0.03704099  0.52898991  0.46922453    -0.01500
Br2132     Br  0.03892878  0.54202795  0.34825576    -0.01600
Br2133     Br  0.09142377  0.46331333  0.45224300    -0.01600
Br2134     Br  0.09072044  0.47004493  0.32885698    -0.01500
C2135       C  0.11849329  0.48367352  0.03526554    -0.02700
C2136       C  0.11239362  0.49588625  0.07887458     0.07000
C2137       C  0.12207899  0.51141431  0.10962888    -0.02800
C2138       C  0.13779603  0.51378750  0.09781753    -0.02800
C2139       C  0.14389307  0.50012068  0.05616050     0.07100
C2140       C  0.13408397  0.48640317  0.02366005    -0.03000
Br2141     Br  0.14217321  0.47230524  0.96183973    -0.01500
Br2142     Br  0.10583028  0.46281527  0.99054689    -0.01600
Br2143     Br  0.15101928  0.53529308  0.13907218    -0.01600
Br2144     Br  0.11434329  0.52711111  0.17069733    -0.01500
C2145       C  0.24861013  0.72986011  0.71671286    -0.02700
C2146       C  0.23642838  0.74759935  0.72646307     0.07000
C2147       C  0.23899867  0.76908834  0.75960053    -0.02800
C2148       C  0.25311887  0.77198722  0.78460550    -0.02800
C2149       C  0.26521121  0.75417064  0.77535892     0.07100
C2150       C  0.26295825  0.73328866  0.74042212    -0.03000
Br2151     Br  0.27961160  0.70991823  0.72192956    -0.01500
Br2152     Br  0.24595388  0.70136464  0.66891606    -0.01600
Br2153     Br  0.25547049  0.79965685  0.83427838    -0.01600
Br2154     Br  0.22317484  0.79446692  0.77367218    -0.01500
C2155       C  0.19365831  0.64426130  0.53836803    -0.02700
C2156       C  0.19429953  0.64964258  0.59039713     0.07000
C2157       C  0.19472970  0.62834932  0.62460163    -0.02800
C2158       C  0.19487221  0.60209530  0.60682428    -0.02800
C2159       C  0.19448737  0.59686314  0.55469302     0.07100
C2160       C  0.19362686  0.61808498  0.52070706    -0.03000
Br2161     Br  0.19141678  0.61154829  0.44943931    -0.01500
Br2162     Br  0.19328137  0.67243285  0.49000866    -0.01600
Br2163     Br  0.19602177  0.57357659  0.65456085    -0.01600
Br2164     Br  0.19427771  0.63472593  0.69625128    -0.01500
C2165       C  0.23813297  0.76538856  0.26764855    -0.02700
C2166       C  0.23637264  0.74653383  0.22877914     0.07000
C2167       C  0.24915296  0.73147461  0.21350513    -0.02800
C2168       C  0.26351347  0.73510911  0.23696052    -0.02800
C2169       C  0.26525350  0.75400103  0.27595006     0.07100
C2170       C  0.25251456  0.76935497  0.29049743    -0.03000
Br2171     Br  0.25458072  0.79540041  0.34305654    -0.01500
Br2172     Br  0.22070920  0.78481838  0.29268556    -0.01600
Br2173     Br  0.28088699  0.71508842  0.21285788    -0.01600
Br2174     Br  0.24708878  0.70656682  0.15887336    -0.01500
C2175       C  0.18163067  0.72564556  0.92248322    -0.02700
C2176       C  0.18756415  0.74898372  0.94444696     0.07000
C2177       C  0.19150999  0.77033282  0.91329164    -0.02800
C2178       C  0.18864629  0.76912561  0.86160064    -0.02800
C2179       C  0.18484572  0.74471243  0.83864276     0.07100
C2180       C  0.18055482  0.72333679  0.86984886    -0.03000
Br2181     Br  0.17125425  0.69190757  0.84164331    -0.01500
Br2182     Br  0.17398675  0.69717437  0.96369095    -0.01600
Br2183     Br  0.18773813  0.80225590  0.82598293    -0.01600
Br2184     Br  0.20201538  0.80090911  0.94026038    -0.01500
C2185       C  0.17721592  0.76372057  0.41323255    -0.02700
C2186       C  0.18878935  0.75211482  0.44355281     0.07000
C2187       C  0.20047750  0.73703746  0.42079808    -0.02800
C2188       C  0.20009937  0.73210326  0.36887600    -0.02800
C2189       C  0.18844102  0.74338178  0.33878580     0.07100
C2190       C  0.17709565  0.75933054  0.36106270    -0.03000
Br2191     Br  0.16084375  0.77394877  0.32031407    -0.01500
Br2192     Br  0.16117592  0.78543135  0.44213592    -0.01600
Br2193     Br  0.21611947  0.71068980  0.33929302    -0.01600
Br2194     Br  0.21797257  0.72554851  0.45967743    -0.01500
C2195       C  0.20284384  0.61939450  0.02297061    -0.02700
C2196       C  0.19813582  0.59800766  0.05365689     0.07000
C2197       C  0.19294130  0.60338808  0.10317724    -0.02800
C2198       C  0.19161096  0.62956448  0.12024759    -0.02800
C2199       C  0.19632325  0.65048739  0.08960245     0.07100
C2200       C  0.20249498  0.64537794  0.04189860    -0.03000
Br2201     Br  0.21146177  0.67390159  0.00412795    -0.01500
Br2202     Br  0.20896027  0.61422867  0.95389090    -0.01600
Br2203     Br  0.18313613  0.63699933  0.18591199    -0.01600
Br2204     Br  0.18840363  0.57550532  0.15006992    -0.01500
C2205       C  0.07444089  0.63847890  0.05529572    -0.02700
C2206       C  0.06012854  0.64857332  0.03935400     0.07000
C2207       C  0.04668062  0.63376467  0.04771385    -0.02800
C2208       C  0.04749625  0.60948666  0.07318202    -0.02800
C2209       C  0.06170337  0.59996671  0.09106256     0.07100
C2210       C  0.07519805  0.61450435  0.08169015    -0.03000
Br2211     Br  0.09472276  0.60242935  0.10728323    -0.01500
Br2212     Br  0.09321286  0.65686877  0.03899934    -0.01600
Br2213     Br  0.02912719  0.58883668  0.08166662    -0.01600
Br2214     Br  0.02696173  0.64702410  0.02628358    -0.01500
C2215       C  0.11796467  0.74849013  0.02524837    -0.02700
C2216       C  0.10810174  0.74972363  0.06693645     0.07000
C2217       C  0.11436419  0.74928184  0.11585034    -0.02800
C2218       C  0.13041370  0.74827324  0.12283373    -0.02800
C2219       C  0.14027379  0.74822080  0.08102892     0.07100
C2220       C  0.13396842  0.74840049  0.03225066    -0.03000
Br2221     Br  0.14716540  0.75132424  0.97472418    -0.01500
Br2222     Br  0.10952884  0.74897612  0.95828949    -0.01600
Br2223     Br  0.13903436  0.74880997  0.18950971    -0.01600
Br2224     Br  0.10105294  0.75110247  0.17335866    -0.01500
C2225       C  0.07169547  0.73436647  0.70969023    -0.02700
C2226       C  0.06186229  0.75327246  0.68746279     0.07000
C2227       C  0.05341425  0.77069185  0.71841950    -0.02800
C2228       C  0.05482264  0.76940951  0.77097946    -0.02800
C2229       C  0.06446215  0.75031236  0.79308560     0.07100
C2230       C  0.07302337  0.73305554  0.76226303    -0.03000
Br2231     Br  0.08706157  0.70816499  0.79242397    -0.01500
Br2232     Br  0.08382940  0.71057466  0.66883051    -0.01600
Br2233     Br  0.04282695  0.79299539  0.81250464    -0.01600
Br2234     Br  0.03890912  0.79500234  0.68898199    -0.01500
C2235       C  0.06578946  0.72357097  0.26158067    -0.02700
C2236       C  0.05864852  0.74260379  0.29258921     0.07000
C2237       C  0.04931664  0.76229068  0.27071218    -0.02800
C2238       C  0.04785087  0.76371864  0.21818293    -0.02800
C2239       C  0.05578411  0.74564809  0.18700190     0.07100
C2240       C  0.06412502  0.72470552  0.20912182    -0.03000
Br2241     Br  0.07385921  0.69767988  0.16851230    -0.01500
Br2242     Br  0.07874729  0.69668572  0.29074833    -0.01600
Br2243     Br  0.03411627  0.78947582  0.18905655    -0.01600
Br2244     Br  0.03787532  0.78671707  0.31233754    -0.01500
C2245       C  0.06349398  0.60361884  0.54053872    -0.02700
C2246       C  0.05934992  0.59926342  0.59138768     0.07000
C2247       C  0.05482708  0.62129439  0.62114516    -0.02800
C2248       C  0.05369741  0.64667937  0.59979936    -0.02800
C2249       C  0.05766505  0.65068271  0.54923168     0.07100
C2250       C  0.06269900  0.62918270  0.51990908    -0.03000
Br2251     Br  0.06899751  0.63507333  0.45129759    -0.01500
Br2252     Br  0.07001849  0.57505482  0.49729433    -0.01600
Br2253     Br  0.04599284  0.67589930  0.63928808    -0.01600
Br2254     Br  0.05121367  0.61772327  0.69235675    -0.01500
C2255       C  0.11512531  0.76046314  0.60586510    -0.02700
C2256       C  0.10903114  0.75031209  0.56049490     0.07000
C2257       C  0.11879835  0.73705026  0.52642524    -0.02800
C2258       C  0.13472573  0.73595539  0.53586166    -0.02800
C2259       C  0.14080725  0.74807360  0.57924674     0.07100
C2260       C  0.13091279  0.75885931  0.61542490    -0.03000
Br2261     Br  0.13916851  0.77118268  0.67851416    -0.01500
Br2262     Br  0.10206904  0.77731784  0.65515197    -0.01600
Br2263     Br  0.14829733  0.71900170  0.48844932    -0.01600
Br2264     Br  0.11068325  0.72260265  0.46487044    -0.01500
C2265       C  0.24933950  0.23006936  0.97201912    -0.02700
C2266       C  0.23678411  0.24553083  0.98775851     0.07000
C2267       C  0.23882210  0.26399664  0.02721671    -0.02800
C2268       C  0.25328728  0.26704242  0.05013814    -0.02800
C2269       C  0.26578715  0.25117952  0.03516794     0.07100
C2270       C  0.26366385  0.23237396  0.99626810    -0.03000
Br2271     Br  0.28041160  0.21027888  0.97398428    -0.01500
Br2272     Br  0.24712926  0.20704964  0.91461751    -0.01600
Br2273     Br  0.25578741  0.29226717  0.10387799    -0.01600
Br2274     Br  0.22173871  0.28445299  0.05234137    -0.01500
C2275       C  0.17406404  0.36182560  0.94194015    -0.02700
C2276       C  0.18769201  0.34668537  0.94158124     0.07000
C2277       C  0.20201953  0.35963116  0.94518484    -0.02800
C2278       C  0.20259750  0.38729106  0.95139652    -0.02800
C2279       C  0.18893621  0.40228532  0.95044251     0.07100
C2280       C  0.17478532  0.38942471  0.94326540    -0.03000
Br2281     Br  0.15630440  0.40950191  0.93181148    -0.01500
Br2282     Br  0.15412351  0.34514319  0.94410081    -0.01600
Br2283     Br  0.22206590  0.40428699  0.96346593    -0.01600
Br2284     Br  0.22094412  0.33998843  0.93929230    -0.01500
C2285       C  0.24872674  0.22842599  0.47719293    -0.02700
C2286       C  0.23631592  0.24533997  0.48826990     0.07000
C2287       C  0.23838747  0.26572734  0.52427797    -0.02800
C2288       C  0.25263186  0.26891963  0.54885573    -0.02800
C2289       C  0.26496895  0.25157981  0.53856734     0.07100
C2290       C  0.26290906  0.23145991  0.50199109    -0.03000
Br2291     Br  0.27974878  0.20905888  0.48160899    -0.01500
Br2292     Br  0.24658416  0.20169101  0.42581233    -0.01600
Br2293     Br  0.25498774  0.29678267  0.59799002    -0.01600
Br2294     Br  0.22152241  0.28847048  0.54339158    -0.01500
C2295       C  0.20199525  0.35732778  0.43254267    -0.02700
C2296       C  0.18760872  0.34497408  0.43934479     0.07000
C2297       C  0.17442526  0.36051106  0.44762269    -0.02800
C2298       C  0.17553280  0.38808018  0.44810099    -0.02800
C2299       C  0.18998592  0.40036214  0.44501090     0.07100
C2300       C  0.20320172  0.38504246  0.43614747    -0.03000
Br2301     Br  0.22292606  0.40196044  0.43113494    -0.01500
Br2302     Br  0.22003815  0.33649646  0.41810893    -0.01600
Br2303     Br  0.15718853  0.40938947  0.45453411    -0.01600
Br2304     Br  0.15506758  0.34415435  0.46384327    -0.01500
C2305       C  0.17702240  0.25597779  0.62129204    -0.02700
C2306       C  0.18895447  0.24183832  0.59791215     0.07000
C2307       C  0.20136410  0.23224296  0.62689608    -0.02800
C2308       C  0.20168976  0.23643104  0.67905433    -0.02800
C2309       C  0.18973322  0.25053991  0.70250073     0.07100
C2310       C  0.17749455  0.26068433  0.67328610    -0.03000
Br2311     Br  0.16098749  0.28060119  0.70393161    -0.01500
Br2312     Br  0.15958003  0.26766674  0.58248667    -0.01600
Br2313     Br  0.21908018  0.22434730  0.71773691    -0.01600
Br2314     Br  0.21847759  0.21445685  0.59538487    -0.01500
C2315       C  0.20010908  0.23386305  0.17998631    -0.02700
C2316       C  0.18936990  0.25086308  0.20294201     0.07000
C2317       C  0.17854805  0.26454932  0.17289953    -0.02800
C2318       C  0.17855429  0.26131212  0.12045714    -0.02800
C2319       C  0.18910520  0.24392627  0.09761721     0.07100
C2320       C  0.20002692  0.23047569  0.12760278    -0.03000
Br2321     Br  0.21577403  0.20861691  0.09734592    -0.01500
Br2322     Br  0.21551756  0.21603998  0.21972801    -0.01600
Br2323     Br  0.16363125  0.28008744  0.08038530    -0.01600
Br2324     Br  0.16285574  0.28662205  0.20301885    -0.01500
C2325       C  0.06026278  0.36369851  0.74001875    -0.02700
C2326       C  0.06162339  0.34687008  0.69760261     0.07000
C2327       C  0.06208229  0.35803627  0.64938963    -0.02800
C2328       C  0.06177228  0.38568265  0.64376081    -0.02800
C2329       C  0.06197393  0.40252550  0.68639360     0.07100
C2330       C  0.06091892  0.39136321  0.73458790    -0.03000
Br2331     Br  0.06172375  0.41360108  0.79357814    -0.01500
Br2332     Br  0.05718183  0.34896377  0.80599125    -0.01600
Br2333     Br  0.06071978  0.40024799  0.57696845    -0.01600
Br2334     Br  0.06451029  0.33574607  0.59101781    -0.01500
C2335       C  0.11573357  0.26237632  0.85636659    -0.02700
C2336       C  0.11029227  0.25135552  0.81072846     0.07000
C2337       C  0.12048788  0.23666907  0.78021203    -0.02800
C2338       C  0.13613487  0.23478222  0.79339719    -0.02800
C2339       C  0.14174050  0.24865689  0.83552152     0.07100
C2340       C  0.13141151  0.26112283  0.86837791    -0.03000
Br2341     Br  0.13886208  0.27557213  0.93094256    -0.01500
Br2342     Br  0.10186110  0.27888595  0.90366355    -0.01600
Br2343     Br  0.14994458  0.21359400  0.75340577    -0.01600
Br2344     Br  0.11349146  0.22108352  0.71818411    -0.01500
C2345       C  0.05034594  0.36038953  0.18817623    -0.02700
C2346       C  0.06450235  0.34716500  0.19555036     0.07000
C2347       C  0.07806049  0.36234384  0.20079730    -0.02800
C2348       C  0.07739011  0.39004834  0.20025042    -0.02800
C2349       C  0.06345577  0.40316052  0.19057230     0.07100
C2350       C  0.04987708  0.38829115  0.18520268    -0.03000
Br2351     Br  0.03071199  0.40614264  0.17254939    -0.01500
Br2352     Br  0.03148190  0.34065538  0.18321663    -0.01600
Br2353     Br  0.09567867  0.41040346  0.21410673    -0.01600
Br2354     Br  0.09800836  0.34561066  0.20505226    -0.01500
C2355       C  0.05358752  0.26339055  0.01215091    -0.02700
C2356       C  0.06435014  0.24620278  0.03436439     0.07000
C2357       C  0.07389578  0.23039173  0.00387522    -0.02800
C2358       C  0.07275479  0.23182272  0.95133182    -0.02800
C2359       C  0.06196522  0.24906867  0.92908600     0.07100
C2360       C  0.05231845  0.26464030  0.95968607    -0.03000
Br2361     Br  0.03670069  0.28663397  0.92973535    -0.01500
Br2362     Br  0.03993499  0.28434405  0.05333654    -0.01600
Br2363     Br  0.08655947  0.21092216  0.91042922    -0.01600
Br2364     Br  0.08894781  0.20742328  0.03427422    -0.01500
C2365       C  0.06946407  0.22886513  0.45055900    -0.02700
C2366       C  0.05931873  0.24734531  0.42866439     0.07000
C2367       C  0.05016112  0.26356701  0.45980146    -0.02800
C2368       C  0.05126792  0.26160805  0.51231979    -0.02800
C2369       C  0.06175526  0.24375396  0.53417448     0.07100
C2370       C  0.07053240  0.22690368  0.50307342    -0.03000
Br2371     Br  0.08436202  0.20134241  0.53229161    -0.01500
Br2372     Br  0.08291591  0.20745804  0.40929677    -0.01600
Br2373     Br  0.03743122  0.28195225  0.55390854    -0.01600
Br2374     Br  0.03570089  0.28807244  0.43060500    -0.01500
C2375       C  0.11483712  0.26070178  0.35711721    -0.02700
C2376       C  0.10909201  0.24986075  0.31178476     0.07000
C2377       C  0.11923673  0.23618235  0.27938434    -0.02800
C2378       C  0.13511718  0.23549109  0.29012684    -0.02800
C2379       C  0.14087278  0.24825873  0.33336027     0.07100
C2380       C  0.13064100  0.25997788  0.36756534    -0.03000
Br2381     Br  0.13847041  0.27518056  0.42899222    -0.01500
Br2382     Br  0.10114342  0.27616970  0.40619223    -0.01600
Br2383     Br  0.14910304  0.21844809  0.24412793    -0.01600
Br2384     Br  0.11170767  0.21987174  0.21866519    -0.01500
C2385       C  0.04959569  0.88864338  0.94581373    -0.02700
C2386       C  0.06337447  0.90292861  0.94029944     0.07000
C2387       C  0.07758410  0.88942722  0.94218777    -0.02800
C2388       C  0.07798234  0.86188700  0.94784349    -0.02800
C2389       C  0.06424946  0.84769393  0.95424587     0.07100
C2390       C  0.05006067  0.86115048  0.95357468    -0.03000
Br2391     Br  0.03123483  0.84211266  0.96479643    -0.01500
Br2392     Br  0.03001838  0.90622548  0.93968689    -0.01600
Br2393     Br  0.09737512  0.84341521  0.94363133    -0.01600
Br2394     Br  0.09671953  0.90861951  0.93835430    -0.01500
C2395       C  0.07230420  0.11147837  0.82885645    -0.02700
C2396       C  0.05793098  0.09961020  0.83777578     0.07000
C2397       C  0.04435718  0.11300281  0.82435813    -0.02800
C2398       C  0.04515521  0.13807613  0.80194151    -0.02800
C2399       C  0.05956364  0.14982245  0.79234935     0.07100
C2400       C  0.07313633  0.13647416  0.80627237    -0.03000
Br2401     Br  0.09302191  0.15158380  0.79224455    -0.01500
Br2402     Br  0.09099314  0.09379014  0.84855961    -0.01600
Br2403     Br  0.02634869  0.15655962  0.78613817    -0.01600
Br2404     Br  0.02463892  0.09642885  0.83392813    -0.01500
C2405       C  0.07884601  0.86070943  0.43586601    -0.02700
C2406       C  0.06485590  0.84693599  0.44117404     0.07000
C2407       C  0.05090278  0.86113049  0.44039896    -0.02800
C2408       C  0.05093718  0.88881960  0.43487110    -0.02800
C2409       C  0.06493372  0.90264387  0.43117078     0.07100
C2410       C  0.07890867  0.88840753  0.43215253    -0.03000
Br2411     Br  0.09835111  0.90681496  0.43100210    -0.01500
Br2412     Br  0.09805610  0.84161568  0.43150849    -0.01600
Br2413     Br  0.03168768  0.90752130  0.43040480    -0.01600
Br2414     Br  0.03166328  0.84295273  0.44925792    -0.01500
C2415       C  0.05121387  0.98421372  0.61134913    -0.02700
C2416       C  0.06199290  0.00196536  0.59088144     0.07000
C2417       C  0.07066414  0.01824042  0.62310463    -0.02800
C2418       C  0.06879262  0.01657782  0.67538891    -0.02800
C2419       C  0.05788761  0.99906245  0.69594933     0.07100
C2420       C  0.04901802  0.98306578  0.66366789    -0.03000
Br2421     Br  0.03322221  0.96064651  0.69101070    -0.01500
Br2422     Br  0.03885331  0.96226180  0.56791043    -0.01600
Br2423     Br  0.08195449  0.03741009  0.71841102    -0.01600
Br2424     Br  0.08552718  0.04239234  0.59549717    -0.01500
C2425       C  0.07184009  0.02127505  0.12136203    -0.02700
C2426       C  0.06261135  0.00506786  0.09062185     0.07000
C2427       C  0.05164935  0.98824177  0.11276516    -0.02800
C2428       C  0.04987266  0.98781448  0.16514354    -0.02800
C2429       C  0.05939100  0.00339357  0.19600619     0.07100
C2430       C  0.07028412  0.02042901  0.17391549    -0.03000
Br2431     Br  0.08364781  0.04187705  0.21512877    -0.01500
Br2432     Br  0.08717366  0.04373570  0.09141126    -0.01600
Br2433     Br  0.03372779  0.96693155  0.19469427    -0.01600
Br2434     Br  0.03844541  0.96642789  0.07174410    -0.01500
C2435       C  0.07339625  0.13736991  0.30210845    -0.02700
C2436       C  0.05943213  0.14875407  0.28599361     0.07000
C2437       C  0.04548967  0.13520679  0.29420214    -0.02800
C2438       C  0.04549792  0.11109130  0.32028490    -0.02800
C2439       C  0.05941473  0.10025144  0.33765951     0.07100
C2440       C  0.07336819  0.11324768  0.32789728    -0.03000
Br2441     Br  0.09254211  0.09821742  0.35069062    -0.01500
Br2442     Br  0.09279532  0.15376744  0.28611466    -0.01600
Br2443     Br  0.02649470  0.09222307  0.32992258    -0.01600
Br2444     Br  0.02624011  0.14954220  0.27066408    -0.01500
C2445       C  0.23509309  0.98570220  0.60987200    -0.02700
C2446       C  0.23300858  0.00566385  0.64668185     0.07000
C2447       C  0.24514227  0.02358276  0.65550712    -0.02800
C2448       C  0.25925563  0.02099535  0.62979833    -0.02800
C2449       C  0.26153450  0.00024653  0.59459347     0.07100
C2450       C  0.24909151  0.98341358  0.58345559    -0.03000
Br2451     Br  0.25084474  0.95827729  0.52903600    -0.01500
Br2452     Br  0.21868140  0.96176108  0.59326126    -0.01600
Br2453     Br  0.27562170  0.04524353  0.64647400    -0.01600
Br2454     Br  0.24291936  0.05094278  0.70553059    -0.01500
C2455       C  0.19882137  0.88906398  0.69307695    -0.02700
C2456       C  0.18463733  0.90234992  0.69876826     0.07000
C2457       C  0.17094049  0.88732831  0.70040721    -0.02800
C2458       C  0.17146889  0.85969747  0.69764441    -0.02800
C2459       C  0.18545563  0.84664010  0.68873366     0.07100
C2460       C  0.19918757  0.86134492  0.68701197    -0.03000
Br2461     Br  0.21849955  0.84376436  0.67505168    -0.01500
Br2462     Br  0.21787533  0.90831728  0.69652424    -0.01600
Br2463     Br  0.15300756  0.83952426  0.70942126    -0.01600
Br2464     Br  0.15104844  0.90405976  0.70433400    -0.01500
C2465       C  0.20666803  0.11098035  0.81079512    -0.02700
C2466       C  0.19233455  0.09922812  0.80026031     0.07000
C2467       C  0.17870800  0.11256350  0.81398118    -0.02800
C2468       C  0.17944032  0.13721111  0.83822815    -0.02800
C2469       C  0.19372792  0.14962434  0.84597446     0.07100
C2470       C  0.20735379  0.13644403  0.83209620    -0.03000
Br2471     Br  0.22695883  0.15365503  0.83950510    -0.01500
Br2472     Br  0.22544374  0.09175402  0.79939013    -0.01600
Br2473     Br  0.16077312  0.15331175  0.86308066    -0.01600
Br2474     Br  0.15884854  0.09802174  0.79726317    -0.01500
C2475       C  0.11328272  0.98480459  0.77389936    -0.02700
C2476       C  0.10667336  0.99745212  0.81619529     0.07000
C2477       C  0.11598975  0.01372771  0.84689448    -0.02800
C2478       C  0.13191561  0.01524982  0.83808862    -0.02800
C2479       C  0.13861078  0.00009809  0.79943566     0.07100
C2480       C  0.12917574  0.98623972  0.76567339    -0.03000
Br2481     Br  0.13812095  0.97035218  0.70660206    -0.01500
Br2482     Br  0.10070273  0.96602330  0.72581240    -0.01600
Br2483     Br  0.14461304  0.03734387  0.88013530    -0.01600
Br2484     Br  0.10746034  0.03240325  0.90357569    -0.01500
C2485       C  0.25351343  0.97746998  0.09674398    -0.02700
C2486       C  0.26592208  0.99399667  0.10928354     0.07000
C2487       C  0.26385914  0.01377650  0.14645658    -0.02800
C2488       C  0.24955491  0.01694906  0.17031306    -0.02800
C2489       C  0.23710968  0.00059850  0.15744485     0.07100
C2490       C  0.23928614  0.98034401  0.12131094    -0.03000
Br2491     Br  0.22277549  0.95683620  0.10327939    -0.01500
Br2492     Br  0.25560266  0.95226368  0.04278332    -0.01600
Br2493     Br  0.24726706  0.04268728  0.22330272    -0.01600
Br2494     Br  0.28067534  0.03609809  0.16722250    -0.01500
C2495       C  0.18956990  0.89215416  0.14942079    -0.02700
C2496       C  0.18992587  0.90178649  0.19898129     0.07000
C2497       C  0.19119805  0.88394252  0.23943454    -0.02800
C2498       C  0.19054715  0.85660349  0.23074581    -0.02800
C2499       C  0.18988064  0.84690190  0.18122841     0.07100
C2500       C  0.19012971  0.86479041  0.14053699    -0.03000
Br2501     Br  0.19133786  0.85200430  0.07217335    -0.01500
Br2502     Br  0.18679765  0.91602405  0.09383865    -0.01600
Br2503     Br  0.18888042  0.83297398  0.28707790    -0.01600
Br2504     Br  0.19395575  0.89687038  0.30723707    -0.01500
C2505       C  0.20048683  0.01610108  0.01437080    -0.02700
C2506       C  0.18839878  0.00692789  0.04500600     0.07000
C2507       C  0.17555902  0.99474216  0.02304527    -0.02800
C2508       C  0.17473870  0.99180931  0.97060282    -0.02800
C2509       C  0.18695895  0.00062309  0.93991820     0.07100
C2510       C  0.19982645  0.01273004  0.96204643    -0.03000
Br2511     Br  0.21711070  0.02295738  0.92114929    -0.01500
Br2512     Br  0.21846429  0.03208998  0.04390398    -0.01600
Br2513     Br  0.15652819  0.97643033  0.94133403    -0.01600
Br2514     Br  0.15887847  0.98281833  0.06484532    -0.01500
C2515       C  0.18191004  0.02785219  0.51134129    -0.02700
C2516       C  0.18210801  0.00574315  0.54419827     0.07000
C2517       C  0.18295251  0.98010009  0.52265860    -0.02800
C2518       C  0.18629855  0.97687573  0.47137800    -0.02800
C2519       C  0.18674476  0.99893933  0.43892642     0.07100
C2520       C  0.18454555  0.02452568  0.45950825    -0.03000
Br2521     Br  0.18507697  0.05589806  0.41802215    -0.01500
Br2522     Br  0.17653021  0.06306891  0.53468147    -0.01600
Br2523     Br  0.19176604  0.94182914  0.44768781    -0.01600
Br2524     Br  0.17813045  0.94857829  0.56057275    -0.01500
C2525       C  0.20967698  0.11262579  0.30641552    -0.02700
C2526       C  0.19594462  0.09836618  0.29837705     0.07000
C2527       C  0.18176041  0.11012535  0.31144114    -0.02800
C2528       C  0.18136468  0.13492334  0.33517001    -0.02800
C2529       C  0.19501339  0.14925962  0.34263802     0.07100
C2530       C  0.20915867  0.13818785  0.32756242    -0.03000
Br2531     Br  0.22780215  0.15844805  0.33350201    -0.01500
Br2532     Br  0.22933768  0.09730660  0.29025636    -0.01600
Br2533     Br  0.16204671  0.14847819  0.36003525    -0.01600
Br2534     Br  0.16256457  0.09344309  0.29350372    -0.01500
C2535       C  0.13458662  0.01377273  0.33997873    -0.02700
C2536       C  0.14089488  0.00219175  0.29631418     0.07000
C2537       C  0.13103886  0.99039477  0.26082157    -0.02800
C2538       C  0.11520529  0.98849453  0.27034561    -0.02800
C2539       C  0.10894140  0.99895925  0.31527895     0.07100
C2540       C  0.11866698  0.01231412  0.34931774    -0.03000
Br2541     Br  0.11061176  0.02601188  0.41171784    -0.01500
Br2542     Br  0.14782465  0.02907971  0.38998695    -0.01600
Br2543     Br  0.10232795  0.97092330  0.22145635    -0.01600
Br2544     Br  0.13943908  0.97599465  0.19933108    -0.01500
C2545       C  0.81523175  0.97590711  0.48657258    -0.02700
C2546       C  0.80848618  0.99583380  0.45689602     0.07000
C2547       C  0.80014511  0.01634777  0.48030809    -0.02800
C2548       C  0.79952253  0.01802353  0.53296036    -0.02800
C2549       C  0.80695241  0.99885019  0.56288770     0.07100
C2550       C  0.81406232  0.97691879  0.53929167    -0.03000
Br2551     Br  0.82231462  0.94798444  0.57808415    -0.01500
Br2552     Br  0.82683225  0.94777168  0.45518692    -0.01600
Br2553     Br  0.78747323  0.04581043  0.56379332    -0.01600
Br2554     Br  0.78865751  0.04136401  0.44051217    -0.01500
C2555       C  0.82086431  0.02603267  0.03291689    -0.02700
C2556       C  0.81019311  0.01203087  0.06279171     0.07000
C2557       C  0.79996249  0.99441586  0.03971938    -0.02800
C2558       C  0.80161435  0.98803585  0.98864074    -0.02800
C2559       C  0.81263113  0.00128668  0.95870255     0.07100
C2560       C  0.82177416  0.02115692  0.98084050    -0.03000
Br2561     Br  0.83589392  0.04135919  0.94044344    -0.01500
Br2562     Br  0.83457533  0.05166629  0.06267905    -0.01600
Br2563     Br  0.78796835  0.96188719  0.96044387    -0.01600
Br2564     Br  0.78246131  0.98166119  0.07694429    -0.01500
C2565       C  0.99089996  0.98280044  0.48011641    -0.02700
C2566       C  0.98608937  0.99610080  0.52454704     0.07000
C2567       C  0.99611248  0.01427296  0.54743092    -0.02800
C2568       C  0.01062617  0.01939804  0.52613658    -0.02800
C2569       C  0.01528175  0.00655393  0.48113112     0.07100
C2570       C  0.00530752  0.98827588  0.45838416    -0.03000
Br2571     Br  0.01097395  0.97201524  0.39531594    -0.01500
Br2572     Br  0.97768680  0.95768876  0.44662610    -0.01600
Br2573     Br  0.02429294  0.04315431  0.56112168    -0.01600
Br2574     Br  0.99036974  0.03087906  0.61007769    -0.01500
C2575       C  0.86491248  0.00023726  0.64738596    -0.02700
C2576       C  0.85835863  0.00671015  0.69423023     0.07000
C2577       C  0.86796657  0.01419049  0.73423106    -0.02800
C2578       C  0.88397168  0.01578917  0.72717720    -0.02800
C2579       C  0.89061642  0.00850098  0.68060969     0.07100
C2580       C  0.88098188  0.00035759  0.64096015    -0.03000
Br2581     Br  0.88962935  0.99193155  0.57618396    -0.01500
Br2582     Br  0.85185188  0.99407324  0.59043673    -0.01600
Br2583     Br  0.89657436  0.02905477  0.78121504    -0.01600
Br2584     Br  0.85900904  0.02315183  0.79834885    -0.01500
C2585       C  0.99503580  0.01265632  0.05145750    -0.02700
C2586       C  0.98472170  0.99601022  0.02580450     0.07000
C2587       C  0.98925313  0.98451862  0.97939808    -0.02800
C2588       C  0.00387801  0.98963344  0.95916668    -0.02800
C2589       C  0.01411331  0.00651047  0.98450073     0.07100
C2590       C  0.00967971  0.01774965  0.03118182    -0.03000
Br2591     Br  0.02390830  0.03884125  0.06981349    -0.01500
Br2592     Br  0.98936326  0.02771736  0.11557773    -0.01600
Br2593     Br  0.00959546  0.97437690  0.89523433    -0.01600
Br2594     Br  0.97517557  0.96320741  0.94052309    -0.01500
C2595       C  0.92896490  0.98866411  0.82943632    -0.02700
C2596       C  0.93972479  0.00603293  0.80752753     0.07000
C2597       C  0.94950201  0.02106989  0.83868873    -0.02800
C2598       C  0.94851414  0.01880706  0.89121037    -0.02800
C2599       C  0.93732803  0.00229913  0.91299616     0.07100
C2600       C  0.92759174  0.98725156  0.88190778    -0.03000
Br2601     Br  0.91205058  0.96500176  0.91134020    -0.01500
Br2602     Br  0.91568569  0.96696041  0.78827007    -0.01600
Br2603     Br  0.96350198  0.03648840  0.93276565    -0.01600
Br2604     Br  0.96500858  0.04348760  0.80957410    -0.01500
C2605       C  0.94915090  0.01555851  0.39050154    -0.02700
C2606       C  0.93856942  0.99816855  0.41297343     0.07000
C2607       C  0.92860478  0.98311065  0.38277582    -0.02800
C2608       C  0.92914256  0.98541136  0.33028997    -0.02800
C2609       C  0.93964451  0.00292898  0.30771618     0.07100
C2610       C  0.94951563  0.01825056  0.33804015    -0.03000
Br2611     Br  0.96371748  0.04279044  0.30792327    -0.01500
Br2612     Br  0.96374572  0.03480515  0.43112120    -0.01600
Br2613     Br  0.91456992  0.96593709  0.28994364    -0.01600
Br2614     Br  0.91363949  0.96026527  0.41354320    -0.01500
C2615       C  0.88032529  0.99357090  0.14806609    -0.02700
C2616       C  0.89008813  0.00582272  0.18351371     0.07000
C2617       C  0.88376461  0.01648750  0.22815141    -0.02800
C2618       C  0.86784035  0.01638789  0.23555256    -0.02800
C2619       C  0.85810898  0.00721007  0.19746397     0.07100
C2620       C  0.86428820  0.99492461  0.15448746    -0.03000
Br2621     Br  0.85070796  0.98106293  0.10363998    -0.01500
Br2622     Br  0.88863502  0.97619285  0.08956229    -0.01600
Br2623     Br  0.85920238  0.02815014  0.29839945    -0.01600
Br2624     Br  0.89673565  0.03147474  0.27972507    -0.01500
C2625       C  0.79525111  0.86267435  0.67874861    -0.02700
C2626       C  0.80937359  0.85026958  0.66724636     0.07000
C2627       C  0.82320933  0.86398796  0.67637893    -0.02800
C2628       C  0.82292182  0.88949065  0.69762466    -0.02800
C2629       C  0.80879890  0.90189569  0.70886306     0.07100
C2630       C  0.79497260  0.88866248  0.69787841    -0.03000
Br2631     Br  0.77561431  0.90684463  0.70480721    -0.01500
Br2632     Br  0.77620337  0.84373375  0.67186451    -0.01600
Br2633     Br  0.84207710  0.90712572  0.71213041    -0.01600
Br2634     Br  0.84272925  0.84850794  0.65801035    -0.01500
C2635       C  0.82295355  0.74256406  0.89517498    -0.02700
C2636       C  0.81103663  0.75834550  0.91496412     0.07000
C2637       C  0.80047280  0.77040306  0.88184445    -0.02800
C2638       C  0.80161540  0.76633319  0.82972943    -0.02800
C2639       C  0.81377825  0.75116355  0.81005832     0.07100
C2640       C  0.82465258  0.73982163  0.84292375    -0.03000
Br2641     Br  0.84263779  0.72215393  0.81661153    -0.01500
Br2642     Br  0.83732327  0.72515037  0.93927680    -0.01600
Br2643     Br  0.78597676  0.78041895  0.78569951    -0.01600
Br2644     Br  0.78384648  0.79152537  0.90723022    -0.01500
C2645       C  0.80102350  0.76481607  0.38649466    -0.02700
C2646       C  0.81312041  0.75376632  0.41514820     0.07000
C2647       C  0.82472795  0.73908968  0.39090392    -0.02800
C2648       C  0.82446220  0.73611243  0.33835949    -0.02800
C2649       C  0.81256631  0.74779878  0.30979210     0.07100
C2650       C  0.80074831  0.76174139  0.33410580    -0.03000
Br2651     Br  0.78360464  0.77521789  0.29593359    -0.01500
Br2652     Br  0.78421234  0.78327301  0.41856703    -0.01600
Br2653     Br  0.84087108  0.71682222  0.30574490    -0.01600
Br2654     Br  0.84148939  0.72425307  0.42901578    -0.01500
C2655       C  0.81132766  0.85831110  0.21829693    -0.02700
C2656       C  0.81071128  0.85291553  0.16629081     0.07000
C2657       C  0.81078563  0.87413025  0.13195843    -0.02800
C2658       C  0.81018438  0.90037535  0.14943536    -0.02800
C2659       C  0.80997332  0.90569726  0.20143966     0.07100
C2660       C  0.81127238  0.88459403  0.23563660    -0.03000
Br2661     Br  0.81382051  0.89164465  0.30652630    -0.01500
Br2662     Br  0.81144253  0.83007378  0.26670478    -0.01600
Br2663     Br  0.80907111  0.92869402  0.10147819    -0.01600
Br2664     Br  0.81243366  0.86751700  0.06058102    -0.01500
C2665       C  0.99697799  0.74186884  0.83239528    -0.02700
C2666       C  0.98687525  0.75944174  0.85682791     0.07000
C2667       C  0.99118085  0.77043339  0.90375991    -0.02800
C2668       C  0.00546222  0.76405215  0.92562028    -0.02800
C2669       C  0.01555930  0.74642025  0.90124455     0.07100
C2670       C  0.01120803  0.73537345  0.85438974    -0.03000
Br2671     Br  0.02496539  0.71220029  0.81822361    -0.01500
Br2672     Br  0.99165839  0.72757934  0.76739021    -0.01600
Br2673     Br  0.01078492  0.77833288  0.99053227    -0.01600
Br2674     Br  0.97717366  0.79297757  0.94044834    -0.01500
C2675       C  0.95670654  0.86925435  0.70721238    -0.02700
C2676       C  0.94304166  0.85480664  0.71447686     0.07000
C2677       C  0.92880430  0.86621962  0.70126098    -0.02800
C2678       C  0.92826127  0.89149548  0.67970735    -0.02800
C2679       C  0.94192719  0.90564295  0.67152645     0.07100
C2680       C  0.95613418  0.89463956  0.68599681    -0.03000
Br2681     Br  0.97483194  0.91470423  0.67850231    -0.01500
Br2682     Br  0.97637470  0.85399975  0.72400192    -0.01600
Br2683     Br  0.90875874  0.90618615  0.65924962    -0.01600
Br2684     Br  0.90984884  0.84785256  0.71444028    -0.01500
C2685       C  0.87313545  0.73706324  0.63932556    -0.02700
C2686       C  0.86325884  0.75115496  0.67153120     0.07000
C2687       C  0.86937124  0.76658201  0.71075084    -0.02800
C2688       C  0.88524572  0.76597064  0.72070210    -0.02800
C2689       C  0.89504550  0.75020131  0.69082817     0.07100
C2690       C  0.88901266  0.73693111  0.64841095    -0.03000
Br2691     Br  0.90247211  0.71915405  0.60150929    -0.01500
Br2692     Br  0.86481944  0.71786360  0.58273820    -0.01600
Br2693     Br  0.89318805  0.78522728  0.77743302    -0.01600
Br2694     Br  0.85580681  0.78706550  0.75297642    -0.01500
C2695       C  0.00323563  0.76584117  0.42810101    -0.02700
C2696       C  0.01311395  0.74728244  0.40541370     0.07000
C2697       C  0.00875688  0.73566071  0.35899607    -0.02800
C2698       C  0.99479441  0.74254144  0.33576909    -0.02800
C2699       C  0.98496194  0.76124720  0.35813527     0.07100
C2700       C  0.98930744  0.77300075  0.40450427    -0.03000
Br2701     Br  0.97594168  0.79792118  0.43793384    -0.01500
Br2702     Br  0.00827721  0.77987286  0.49350808    -0.01600
Br2703     Br  0.98943578  0.72703611  0.27171698    -0.01600
Br2704     Br  0.02200126  0.71081835  0.32496220    -0.01500
C2705       C  0.92978260  0.77630812  0.49668177    -0.02700
C2706       C  0.93806281  0.75930045  0.46447504     0.07000
C2707       C  0.94866151  0.74114621  0.48494349    -0.02800
C2708       C  0.95088965  0.74000653  0.53710246    -0.02800
C2709       C  0.94266943  0.75708885  0.56922382     0.07100
C2710       C  0.93205315  0.77517643  0.54891450    -0.03000
Br2711     Br  0.91975714  0.79711894  0.59269986    -0.01500
Br2712     Br  0.91471475  0.80027077  0.46941776    -0.01600
Br2713     Br  0.96542240  0.71512349  0.56472527    -0.01600
Br2714     Br  0.96082129  0.71851608  0.44196262    -0.01500
C2715       C  0.92984297  0.77033304  0.04702480    -0.02700
C2716       C  0.94069098  0.75312681  0.06913230     0.07000
C2717       C  0.95018937  0.73749660  0.03798821    -0.02800
C2718       C  0.94876299  0.73879928  0.98541665    -0.02800
C2719       C  0.93800391  0.75611692  0.96341890     0.07100
C2720       C  0.92855871  0.77183534  0.99440784    -0.03000
Br2721     Br  0.91341378  0.79476544  0.96449144    -0.01500
Br2722     Br  0.91616241  0.79116364  0.08836338    -0.01600
Br2723     Br  0.96220921  0.71773088  0.94372055    -0.01600
Br2724     Br  0.96588204  0.71542432  0.06722465    -0.01500
C2725       C  0.92587268  0.89131976  0.17892010    -0.02700
C2726       C  0.93976663  0.90329378  0.16389226     0.07000
C2727       C  0.95378366  0.88968985  0.17079438    -0.02800
C2728       C  0.95388244  0.86432560  0.19203961    -0.02800
C2729       C  0.94005442  0.85262847  0.20770194     0.07100
C2730       C  0.92603369  0.86605080  0.20070069    -0.03000
Br2731     Br  0.90702559  0.85018553  0.22242721    -0.01500
Br2732     Br  0.90645571  0.90899399  0.16859161    -0.01600
Br2733     Br  0.97295912  0.84503739  0.19750557    -0.01600
Br2734     Br  0.97308258  0.90622022  0.15430566    -0.01500
C2735       C  0.86987760  0.73674898  0.14013880    -0.02700
C2736       C  0.85997301  0.74933744  0.17424895     0.07000
C2737       C  0.86614790  0.76311179  0.21568878    -0.02800
C2738       C  0.88206100  0.76198940  0.22556467    -0.02800
C2739       C  0.89189308  0.74759961  0.19321938     0.07100
C2740       C  0.88575815  0.73600246  0.14920860    -0.03000
Br2741     Br  0.89906149  0.72006345  0.09955069    -0.01500
Br2742     Br  0.86158983  0.72158646  0.07955515    -0.01600
Br2743     Br  0.89005810  0.77885610  0.28504675    -0.01600
Br2744     Br  0.85278011  0.78303302  0.25950564    -0.01500
C2745       C  0.79717804  0.14175099  0.81574278    -0.02700
C2746       C  0.81114678  0.15567764  0.81535093     0.07000
C2747       C  0.82505124  0.14193188  0.80937285    -0.02800
C2748       C  0.82508089  0.11432203  0.80527978    -0.02800
C2749       C  0.81108248  0.10029382  0.80345899     0.07100
C2750       C  0.79708363  0.11414147  0.80859940    -0.03000
Br2751     Br  0.77778457  0.09571837  0.80426188    -0.01500
Br2752     Br  0.77828256  0.16059702  0.82794370    -0.01600
Br2753     Br  0.84448052  0.09569718  0.80545911    -0.01600
Br2754     Br  0.84415016  0.16115706  0.80736884    -0.01500
C2755       C  0.82860716  0.11491074  0.31318041    -0.02700
C2756       C  0.81438444  0.10192075  0.30764089     0.07000
C2757       C  0.80082955  0.11723608  0.30447289    -0.02800
C2758       C  0.80150967  0.14504096  0.30681597    -0.02800
C2759       C  0.81573367  0.15769468  0.31289986     0.07100
C2760       C  0.82928832  0.14255654  0.31463218    -0.03000
Br2761     Br  0.84896234  0.15997191  0.31931929    -0.01500
Br2762     Br  0.84726376  0.09500310  0.32272794    -0.01600
Br2763     Br  0.78293445  0.16581292  0.30341784    -0.01600
Br2764     Br  0.78125471  0.10069707  0.29691169    -0.01500
C2765       C  0.81880466  0.28023524  0.58400153    -0.02700
C2766       C  0.81666264  0.25558126  0.56024739     0.07000
C2767       C  0.81566534  0.23256944  0.59010478    -0.02800
C2768       C  0.81705483  0.23407006  0.64276903    -0.02800
C2769       C  0.81799960  0.25898063  0.66695989     0.07100
C2770       C  0.81963614  0.28190841  0.63676987    -0.03000
Br2771     Br  0.82441887  0.31586586  0.66663691    -0.01500
Br2772     Br  0.82099585  0.31205960  0.54484786    -0.01600
Br2773     Br  0.81818859  0.20140138  0.67997813    -0.01600
Br2774     Br  0.81100245  0.19875819  0.55950652    -0.01500
C2775       C  0.80527613  0.24220116  0.14437316    -0.02700
C2776       C  0.81501646  0.26173252  0.16505616     0.07000
C2777       C  0.82214097  0.28012089  0.13281550    -0.02800
C2778       C  0.82003953  0.27828353  0.08049639    -0.02800
C2779       C  0.81039645  0.25869887  0.06014067     0.07100
C2780       C  0.80298002  0.24079831  0.09220265    -0.03000
Br2781     Br  0.78937930  0.21450030  0.06418730    -0.01500
Br2782     Br  0.79410097  0.21826036  0.18705771    -0.01600
Br2783     Br  0.83118180  0.30149990  0.03657681    -0.01600
Br2784     Br  0.83513060  0.30756386  0.15988508    -0.01500
C2785       C  0.99603613  0.23831262  0.58503909    -0.02700
C2786       C  0.98656919  0.25664786  0.61020490     0.07000
C2787       C  0.99170452  0.26811546  0.65586589    -0.02800
C2788       C  0.00601388  0.26094229  0.67628192    -0.02800
C2789       C  0.01543765  0.24253062  0.65125748     0.07100
C2790       C  0.01034984  0.23116266  0.60547968    -0.03000
Br2791     Br  0.02321435  0.20687032  0.56827455    -0.01500
Br2792     Br  0.98994531  0.22439697  0.52043109    -0.01600
Br2793     Br  0.01236899  0.27534543  0.74023134    -0.01600
Br2794     Br  0.97900201  0.29282155  0.69275435    -0.01500
C2795       C  0.95093245  0.14132598  0.55654864    -0.02700
C2796       C  0.93713072  0.15584039  0.55456203     0.07000
C2797       C  0.92294817  0.14266213  0.55803604    -0.02800
C2798       C  0.92253949  0.11506671  0.56215234    -0.02800
C2799       C  0.93635586  0.10047790  0.56522774     0.07100
C2800       C  0.95056111  0.11374345  0.56257868    -0.03000
Br2801     Br  0.96959972  0.09458333  0.56975410    -0.01500
Br2802     Br  0.97038664  0.15896618  0.54890051    -0.01600
Br2803     Br  0.90287857  0.09739636  0.56138682    -0.01600
Br2804     Br  0.90396571  0.16254433  0.55929581    -0.01500
C2805       C  0.88946591  0.24524163  0.38917694    -0.02700
C2806       C  0.89524695  0.25528009  0.43510789     0.07000
C2807       C  0.88501473  0.26720480  0.46930891    -0.02800
C2808       C  0.86906988  0.26671012  0.46007123    -0.02800
C2809       C  0.86317412  0.25515001  0.41561814     0.07100
C2810       C  0.87354363  0.24523988  0.37948814    -0.03000
Br2811     Br  0.86592714  0.23159880  0.31646572    -0.01500
Br2812     Br  0.90337770  0.23169594  0.33877488    -0.01600
Br2813     Br  0.85544374  0.27913172  0.51181426    -0.01600
Br2814     Br  0.89260895  0.28241901  0.53098707    -0.01500
C2815       C  0.99658558  0.23946684  0.07605181    -0.02700
C2816       C  0.98706754  0.25820038  0.09998247     0.07000
C2817       C  0.99209628  0.26981789  0.14579273    -0.02800
C2818       C  0.00606879  0.26198556  0.16797200    -0.02800
C2819       C  0.01573498  0.24378339  0.14347445     0.07100
C2820       C  0.01090309  0.23254211  0.09722475    -0.03000
Br2821     Br  0.02412342  0.20859058  0.06068156    -0.01500
Br2822     Br  0.99049673  0.22461299  0.01223559    -0.01600
Br2823     Br  0.01144712  0.27466981  0.23415650    -0.01600
Br2824     Br  0.97987202  0.29607866  0.18034256    -0.01500
C2825       C  0.93711596  0.11933722  0.12049987    -0.02700
C2826       C  0.93779380  0.10193902  0.07855895     0.07000
C2827       C  0.93915096  0.11252588  0.02997960    -0.02800
C2828       C  0.93959805  0.14003617  0.02324856    -0.02800
C2829       C  0.93809775  0.15730338  0.06473560     0.07100
C2830       C  0.93723610  0.14690105  0.11346617    -0.03000
Br2831     Br  0.93527590  0.17037098  0.17042812    -0.01500
Br2832     Br  0.93590420  0.10589972  0.18821818    -0.01600
Br2833     Br  0.94252521  0.15405606  0.95664624    -0.01600
Br2834     Br  0.93871654  0.08977331  0.97177683    -0.01500
C2835       C  0.94746409  0.23683636  0.79729040    -0.02700
C2836       C  0.93523038  0.24844379  0.82405057     0.07000
C2837       C  0.92321807  0.26075731  0.79732658    -0.02800
C2838       C  0.92364384  0.26215507  0.74461818    -0.02800
C2839       C  0.93602587  0.25109288  0.71809118     0.07100
C2840       C  0.94782023  0.23800580  0.74446854    -0.03000
Br2841     Br  0.96472701  0.22231623  0.70849549    -0.01500
Br2842     Br  0.96415094  0.22050642  0.83338705    -0.01600
Br2843     Br  0.90712166  0.27879783  0.70812291    -0.01600
Br2844     Br  0.90584185  0.27495391  0.83210745    -0.01500
C2845       C  0.93521973  0.28171976  0.25159747    -0.02700
C2846       C  0.94299236  0.26402999  0.21918065     0.07000
C2847       C  0.95320485  0.24522441  0.23978032    -0.02800
C2848       C  0.95495170  0.24318184  0.29210907    -0.02800
C2849       C  0.94653685  0.25987026  0.32449595     0.07100
C2850       C  0.93687475  0.27950488  0.30399296    -0.03000
Br2851     Br  0.92468342  0.30201541  0.34730069    -0.01500
Br2852     Br  0.92153437  0.30821304  0.22487294    -0.01600
Br2853     Br  0.96914071  0.21764005  0.31946652    -0.01600
Br2854     Br  0.96553416  0.22286952  0.19677589    -0.01500
C2855       C  0.87814257  0.23030605  0.98652113    -0.02700
C2856       C  0.88763971  0.25092041  0.96938139     0.07000
C2857       C  0.88087349  0.27191445  0.94237244    -0.02800
C2858       C  0.86585957  0.26921895  0.92316796    -0.02800
C2859       C  0.85661863  0.24774122  0.93776744     0.07100
C2860       C  0.86266574  0.22903445  0.97185526    -0.03000
Br2861     Br  0.84990620  0.20166715  0.00020185    -0.01500
Br2862     Br  0.88609749  0.20452562  0.03319525    -0.01600
Br2863     Br  0.85888003  0.29301964  0.87178646    -0.01600
Br2864     Br  0.89131268  0.30521933  0.93489264    -0.01500
C2865       C  0.81425416  0.64145843  0.53361431    -0.02700
C2866       C  0.81626466  0.65296564  0.58138751     0.07000
C2867       C  0.81724105  0.63665670  0.62443848    -0.02800
C2868       C  0.81722254  0.60909049  0.61917734    -0.02800
C2869       C  0.81588844  0.59780688  0.57122122     0.07100
C2870       C  0.81381953  0.61390948  0.52873978    -0.03000
Br2871     Br  0.80994037  0.59823018  0.46369338    -0.01500
Br2872     Br  0.81320087  0.66293319  0.47401596    -0.01600
Br2873     Br  0.81982210  0.58682596  0.67734435    -0.01600
Br2874     Br  0.81820772  0.65155224  0.69129555    -0.01500
C2875       C  0.79619974  0.39321942  0.45408524    -0.02700
C2876       C  0.80973451  0.40301014  0.47601448     0.07000
C2877       C  0.82357507  0.38885071  0.47127018    -0.02800
C2878       C  0.82394496  0.36507845  0.44406778    -0.02800
C2879       C  0.81023088  0.35441973  0.42422368     0.07100
C2880       C  0.79633572  0.36871850  0.42908307    -0.03000
Br2881     Br  0.77726214  0.35488673  0.40307931    -0.01500
Br2882     Br  0.77764002  0.41408748  0.45595771    -0.01600
Br2883     Br  0.84356152  0.34848204  0.43092686    -0.01600
Br2884     Br  0.84199968  0.40158452  0.50361942    -0.01500
C2885       C  0.82581235  0.64137350  0.07061248    -0.02700
C2886       C  0.81184196  0.65563915  0.07080964     0.07000
C2887       C  0.79785071  0.64150680  0.07174558    -0.02800
C2888       C  0.79797330  0.61356092  0.07269043    -0.02800
C2889       C  0.81203243  0.59971238  0.07526463     0.07100
C2890       C  0.82588430  0.61392899  0.07626452    -0.03000
Br2891     Br  0.84519928  0.59581695  0.08702193    -0.01500
Br2892     Br  0.84511688  0.65876465  0.05810022    -0.01600
Br2893     Br  0.77893310  0.59434016  0.06845190    -0.01600
Br2894     Br  0.77849764  0.65997550  0.07225566    -0.01500
C2895       C  0.79956228  0.51792751  0.80758792    -0.02700
C2896       C  0.80922054  0.50255180  0.83827905     0.07000
C2897       C  0.81999265  0.48517421  0.81590120    -0.02800
C2898       C  0.82096786  0.48315783  0.76331611    -0.02800
C2899       C  0.81123747  0.49838555  0.73279776     0.07100
C2900       C  0.80057421  0.51580247  0.75510327    -0.03000
Br2901     Br  0.78673822  0.53590961  0.71415064    -0.01500
Br2902     Br  0.78437998  0.54109466  0.83728517    -0.01600
Br2903     Br  0.83607528  0.46027094  0.73270349    -0.01600
Br2904     Br  0.83408961  0.46499561  0.85658517    -0.01500
C2905       C  0.82031576  0.48222713  0.31493074    -0.02700
C2906       C  0.81170108  0.50261755  0.33817256     0.07000
C2907       C  0.80318128  0.52032817  0.30810862    -0.02800
C2908       C  0.80328800  0.51767013  0.25553812    -0.02800
C2909       C  0.81238803  0.49797775  0.23248761     0.07100
C2910       C  0.82090567  0.48034948  0.26233512    -0.03000
Br2911     Br  0.83405345  0.45425214  0.23106134    -0.01500
Br2912     Br  0.83200772  0.45719268  0.35416876    -0.01600
Br2913     Br  0.78999984  0.53987401  0.21559426    -0.01600
Br2914     Br  0.79064482  0.54757949  0.33851367    -0.01500
C2915       C  0.79410825  0.36898937  0.92794713    -0.02700
C2916       C  0.80785135  0.35431362  0.92250368     0.07000
C2917       C  0.82162865  0.36464665  0.94259964    -0.02800
C2918       C  0.82160999  0.38884222  0.96869435    -0.02800
C2919       C  0.80787601  0.40316303  0.97468103     0.07100
C2920       C  0.79413441  0.39324238  0.95418280    -0.03000
Br2921     Br  0.77539598  0.41338013  0.96069014    -0.01500
Br2922     Br  0.77503268  0.35590239  0.90099821    -0.01600
Br2923     Br  0.84042656  0.40202248  0.99784718    -0.01600
Br2924     Br  0.84090848  0.34679472  0.93211253    -0.01500
C2925       C  0.99694641  0.47924319  0.78793541    -0.02700
C2926       C  0.98550489  0.49895317  0.78509112     0.07000
C2927       C  0.98795342  0.52053881  0.75227206    -0.02800
C2928       C  0.00184502  0.52289105  0.72501208    -0.02800
C2929       C  0.01350583  0.50350512  0.72896171     0.07100
C2930       C  0.01034897  0.48064182  0.75808640    -0.03000
Br2931     Br  0.02465701  0.45154054  0.76194182    -0.01500
Br2932     Br  0.99505102  0.45143770  0.83715953    -0.01600
Br2933     Br  0.00430648  0.55186326  0.67873002    -0.01600
Br2934     Br  0.97210900  0.54663023  0.74179647    -0.01500
C2935       C  0.92481792  0.64251223  0.81121965    -0.02700
C2936       C  0.93878561  0.65636660  0.81616287     0.07000
C2937       C  0.95210894  0.64278374  0.83169100    -0.02800
C2938       C  0.95144805  0.61541923  0.84118242    -0.02800
C2939       C  0.93767984  0.60142076  0.83293168     0.07100
C2940       C  0.92445197  0.61504857  0.81724501    -0.03000
Br2941     Br  0.90609255  0.59586239  0.79974748    -0.01500
Br2942     Br  0.90593223  0.66127065  0.79732218    -0.01600
Br2943     Br  0.96930714  0.59722212  0.86636146    -0.01600
Br2944     Br  0.97141155  0.66113790  0.83739337    -0.01500
C2945       C  0.93961227  0.39933484  0.98010309    -0.02700
C2946       C  0.94161585  0.40449847  0.92833865     0.07000
C2947       C  0.94279548  0.38302017  0.89420868    -0.02800
C2948       C  0.94242703  0.35688683  0.91191090    -0.02800
C2949       C  0.94044439  0.35206203  0.96341043     0.07100
C2950       C  0.93862451  0.37321892  0.99718269    -0.03000
Br2951     Br  0.93402011  0.36623345  0.06690005    -0.01500
Br2952     Br  0.93922358  0.42749144  0.02912642    -0.01600
Br2953     Br  0.94510171  0.32768094  0.86579940    -0.01600
Br2954     Br  0.94425210  0.38880788  0.82275049    -0.01500
C2955       C  0.88387761  0.49138120  0.98041832    -0.02700
C2956       C  0.88964659  0.50544437  0.93892919     0.07000
C2957       C  0.87943461  0.51749916  0.90528702    -0.02800
C2958       C  0.86361239  0.51749443  0.91509155    -0.02800
C2959       C  0.85785231  0.50552462  0.95915997     0.07100
C2960       C  0.86799827  0.49153046  0.99078196    -0.03000
Br2961     Br  0.86050552  0.47406982  0.05009221    -0.01500
Br2962     Br  0.89779355  0.47283003  0.02428402    -0.01600
Br2963     Br  0.84993588  0.53361123  0.86683202    -0.01600
Br2964     Br  0.88720720  0.53349063  0.84486277    -0.01500
C2965       C  0.00560965  0.52629609  0.23059810    -0.02700
C2966       C  0.01780486  0.50853825  0.23917411     0.07000
C2967       C  0.01576976  0.48800814  0.27455341    -0.02800
C2968       C  0.00166522  0.48489705  0.29963421    -0.02800
C2969       C  0.98943690  0.50254991  0.29084750     0.07100
C2970       C  0.99162705  0.52367333  0.25686271    -0.03000
Br2971     Br  0.97537892  0.54868557  0.24371204    -0.01500
Br2972     Br  0.00765425  0.55331949  0.18030658    -0.01600
Br2973     Br  0.99938850  0.45690698  0.34817264    -0.01600
Br2974     Br  0.03244135  0.46463755  0.29202631    -0.01500
C2975       C  0.92437150  0.61442812  0.32350506    -0.02700
C2976       C  0.93831579  0.60139190  0.33404442     0.07000
C2977       C  0.95191013  0.61629464  0.33919187    -0.02800
C2978       C  0.95169116  0.64382892  0.33093266    -0.02800
C2979       C  0.93776914  0.65666517  0.31878239     0.07100
C2980       C  0.92403519  0.64191963  0.31739533    -0.03000
Br2981     Br  0.90444116  0.65946979  0.30941685    -0.01500
Br2982     Br  0.90559533  0.59463514  0.31522635    -0.01600
Br2983     Br  0.97057528  0.66354295  0.33494452    -0.01600
Br2984     Br  0.97067680  0.59929326  0.36014807    -0.01500
C2985       C  0.95041167  0.48640733  0.65081326    -0.02700
C2986       C  0.93841273  0.49752377  0.67982323     0.07000
C2987       C  0.92669030  0.51191127  0.65616496    -0.02800
C2988       C  0.92691062  0.51522477  0.60376175    -0.02800
C2989       C  0.93917045  0.50475355  0.57474026     0.07100
C2990       C  0.95088013  0.49024433  0.59861666    -0.03000
Br2991     Br  0.96809918  0.47665372  0.56062835    -0.01500
Br2992     Br  0.96669767  0.46654324  0.68224910    -0.01600
Br2993     Br  0.90974149  0.53281592  0.57224389    -0.01600
Br2994     Br  0.90989948  0.52594737  0.69546476    -0.01500
C2995       C  0.92664570  0.51513913  0.10730249    -0.02700
C2996       C  0.93844038  0.50594977  0.07504520     0.07000
C2997       C  0.95142125  0.49336608  0.09557878    -0.02800
C2998       C  0.95249770  0.48953833  0.14770845    -0.02800
C2999       C  0.94055844  0.49817544  0.17970409     0.07100
C3000       C  0.92759463  0.51075602  0.15933824    -0.03000
Br3001     Br  0.91076284  0.52069851  0.20266085    -0.01500
Br3002     Br  0.90905179  0.53375052  0.08100044    -0.01600
Br3003     Br  0.97076874  0.47353620  0.17519692    -0.01600
Br3004     Br  0.96836585  0.48329607  0.05276864    -0.01500
C3005       C  0.96070171  0.39430183  0.45206495    -0.02700
C3006       C  0.94744046  0.40530954  0.43027536     0.07000
C3007       C  0.93347975  0.39135732  0.43153902    -0.02800
C3008       C  0.93265119  0.36679844  0.45542227    -0.02800
C3009       C  0.94601869  0.35508607  0.47529429     0.07100
C3010       C  0.96010018  0.36894599  0.47357104    -0.03000
Br3011     Br  0.97870645  0.35325052  0.49929275    -0.01500
Br3012     Br  0.97938541  0.41462851  0.45536214    -0.01600
Br3013     Br  0.91282309  0.35045386  0.46457024    -0.01600
Br3014     Br  0.91541282  0.40559872  0.39929698    -0.01500
C3015       C  0.88752135  0.48603757  0.47720681    -0.02700
C3016       C  0.89305232  0.50019018  0.43546180     0.07000
C3017       C  0.88261416  0.51124440  0.40135279    -0.02800
C3018       C  0.86681218  0.51045406  0.41133884    -0.02800
C3019       C  0.86135324  0.49989351  0.45705864     0.07100
C3020       C  0.87169517  0.48639523  0.48875209    -0.03000
Br3021     Br  0.86455301  0.47008728  0.54957537    -0.01500
Br3022     Br  0.90170193  0.46719118  0.51968841    -0.01600
Br3023     Br  0.85268875  0.52340001  0.36123543    -0.01600
Br3024     Br  0.89005686  0.52739629  0.34065364    -0.01500
C3025       C  0.50420026  0.23227183  0.92336927    -0.02700
C3026       C  0.51639551  0.24895061  0.90997576     0.07000
C3027       C  0.51385882  0.26902019  0.87393301    -0.02800
C3028       C  0.49929269  0.27220947  0.85175956    -0.02800
C3029       C  0.48710273  0.25535537  0.86495506     0.07100
C3030       C  0.48973053  0.23518008  0.90061396    -0.03000
Br3031     Br  0.47356954  0.21169583  0.92068795    -0.01500
Br3032     Br  0.50704335  0.20623818  0.97526877    -0.01600
Br3033     Br  0.49635438  0.29873738  0.80066222    -0.01600
Br3034     Br  0.53040189  0.29142648  0.85164917    -0.01500
C3035       C  0.50640815  0.26008699  0.43306982    -0.02700
C3036       C  0.51679336  0.24394240  0.40670393     0.07000
C3037       C  0.51278153  0.23442059  0.35839854    -0.02800
C3038       C  0.49858878  0.24131050  0.33656593    -0.02800
C3039       C  0.48807003  0.25731627  0.36303995     0.07100
C3040       C  0.49221625  0.26704372  0.41135119    -0.03000
Br3041     Br  0.47840974  0.28901709  0.45013787    -0.01500
Br3042     Br  0.51128350  0.27115265  0.50071180    -0.01600
Br3043     Br  0.49411913  0.23052040  0.26853134    -0.01600
Br3044     Br  0.52686652  0.21259377  0.32054470    -0.01500
C3045       C  0.57400155  0.26682992  0.72128678    -0.02700
C3046       C  0.56218636  0.25506626  0.69222824     0.07000
C3047       C  0.55067019  0.24035170  0.71609785    -0.02800
C3048       C  0.55123925  0.23649373  0.76830826    -0.02800
C3049       C  0.56321199  0.24786482  0.79724453     0.07100
C3050       C  0.57450151  0.26315976  0.77353153    -0.03000
Br3051     Br  0.59113242  0.27809352  0.81228467    -0.01500
Br3052     Br  0.58988276  0.28777942  0.69024307    -0.01600
Br3053     Br  0.53501296  0.21654375  0.79971206    -0.01600
Br3054     Br  0.53337584  0.22744203  0.67785489    -0.01500
C3055       C  0.55502339  0.26667627  0.27524681    -0.02700
C3056       C  0.56475545  0.24747702  0.29692833     0.07000
C3057       C  0.57320185  0.23019742  0.26559216    -0.02800
C3058       C  0.57238687  0.23275978  0.21315259    -0.02800
C3059       C  0.56268430  0.25197982  0.19169734     0.07100
C3060       C  0.55383918  0.26860078  0.22282309    -0.03000
Br3061     Br  0.53939677  0.29309449  0.19345617    -0.01500
Br3062     Br  0.54242710  0.28944561  0.31667289    -0.01600
Br3063     Br  0.58533015  0.21086234  0.17112962    -0.01600
Br3064     Br  0.58629135  0.20333369  0.29415862    -0.01500
C3065       C  0.74849078  0.23444900  0.71619592    -0.02700
C3066       C  0.73596598  0.24918013  0.73410873     0.07000
C3067       C  0.73833449  0.26824266  0.77226713    -0.02800
C3068       C  0.75300791  0.27195166  0.79324498    -0.02800
C3069       C  0.76567064  0.25707730  0.77564328     0.07100
C3070       C  0.76323751  0.23828695  0.73666284    -0.03000
Br3071     Br  0.77995047  0.21835816  0.70812957    -0.01500
Br3072     Br  0.74558003  0.21028842  0.66083329    -0.01600
Br3073     Br  0.75527464  0.29652587  0.84839683    -0.01600
Br3074     Br  0.72140333  0.28883208  0.79820329    -0.01500
C3075       C  0.63220602  0.24501433  0.61330853    -0.02700
C3076       C  0.64197095  0.25723759  0.57824227     0.07000
C3077       C  0.63589125  0.26711334  0.53281928    -0.02800
C3078       C  0.62007567  0.26595524  0.52385498    -0.02800
C3079       C  0.61028021  0.25545032  0.56034020     0.07100
C3080       C  0.61637712  0.24344503  0.60355100    -0.03000
Br3081     Br  0.60311106  0.22458686  0.64882991    -0.01500
Br3082     Br  0.64010711  0.23285114  0.67674686    -0.01600
Br3083     Br  0.61174976  0.27736940  0.46040512    -0.01600
Br3084     Br  0.64903585  0.28257027  0.48247792    -0.01500
C3085       C  0.74432750  0.23419078  0.28008982    -0.02700
C3086       C  0.73929135  0.24526875  0.23401273     0.07000
C3087       C  0.74900357  0.26297321  0.20870879    -0.02800
C3088       C  0.76328965  0.27019370  0.22965106    -0.02800
C3089       C  0.76824149  0.25931535  0.27591447     0.07100
C3090       C  0.75867985  0.24122583  0.30075331    -0.03000
Br3091     Br  0.76483141  0.22740440  0.36515610    -0.01500
Br3092     Br  0.73138215  0.21040443  0.31748995    -0.01600
Br3093     Br  0.77619183  0.29434278  0.19304124    -0.01600
Br3094     Br  0.74315823  0.27601125  0.14341948    -0.01500
C3095       C  0.67771781  0.26789106  0.92467291    -0.02700
C3096       C  0.68956284  0.25582231  0.95313458     0.07000
C3097       C  0.70103612  0.24121225  0.92848702    -0.02800
C3098       C  0.70054207  0.23799820  0.87614247    -0.02800
C3099       C  0.68846838  0.24929415  0.84773045     0.07100
C3100       C  0.67710803  0.26439211  0.87218109    -0.03000
Br3101     Br  0.66026059  0.27909154  0.83425066    -0.01500
Br3102     Br  0.66197200  0.28881531  0.95707439    -0.01600
Br3103     Br  0.71713029  0.21911452  0.84379992    -0.01600
Br3104     Br  0.71814071  0.22715814  0.96606424    -0.01500
C3105       C  0.67993780  0.23342118  0.37698638    -0.02700
C3106       C  0.69106218  0.24655785  0.34817444     0.07000
C3107       C  0.70225944  0.26233588  0.37204154    -0.02800
C3108       C  0.70247834  0.26450549  0.42459488    -0.02800
C3109       C  0.69136895  0.25134154  0.45340676     0.07100
C3110       C  0.68019861  0.23548134  0.42959296    -0.03000
Br3111     Br  0.66494771  0.21704288  0.46858014    -0.01500
Br3112     Br  0.66366201  0.21424720  0.34400433    -0.01600
Br3113     Br  0.71851662  0.28435168  0.45750714    -0.01600
Br3114     Br  0.71747709  0.28086932  0.33319998    -0.01500
C3115       C  0.63267967  0.26676456  0.12229343    -0.02700
C3116       C  0.64264176  0.25381174  0.08880563     0.07000
C3117       C  0.63658802  0.24027772  0.04691051    -0.02800
C3118       C  0.62075130  0.24178579  0.03610787    -0.02800
C3119       C  0.61092475  0.25654881  0.06768529     0.07100
C3120       C  0.61689048  0.26809424  0.11200118    -0.03000
Br3121     Br  0.60346084  0.28512446  0.16000885    -0.01500
Br3122     Br  0.64074049  0.28196927  0.18328417    -0.01600
Br3123     Br  0.61282240  0.22513009  0.97635624    -0.01600
Br3124     Br  0.65009056  0.22055487  0.00330109    -0.01500
C3125       C  0.51165807  0.98552721  0.76689485    -0.02700
C3126       C  0.51390532  0.00636025  0.73230785     0.07000
C3127       C  0.50194453  0.02469317  0.72482437    -0.02800
C3128       C  0.48794753  0.02219859  0.75089412    -0.02800
C3129       C  0.48545258  0.00091086  0.78429171     0.07100
C3130       C  0.49764495  0.98308615  0.79310201    -0.03000
Br3131     Br  0.49568590  0.95649846  0.84454682    -0.01500
Br3132     Br  0.52792209  0.96073689  0.78122770    -0.01600
Br3133     Br  0.47239116  0.04835718  0.73915371    -0.01600
Br3134     Br  0.50440614  0.05281611  0.67663184    -0.01500
C3135       C  0.54572078  0.14119955  0.56075295    -0.02700
C3136       C  0.56012973  0.15346082  0.55466184     0.07000
C3137       C  0.57359109  0.14047023  0.57081634    -0.02800
C3138       C  0.57266098  0.11488683  0.59081238    -0.02800
C3139       C  0.55827970  0.10230456  0.59524155     0.07100
C3140       C  0.54482007  0.11557818  0.58041231    -0.03000
Br3141     Br  0.52520038  0.09806215  0.58315137    -0.01500
Br3142     Br  0.52701925  0.15979861  0.54396576    -0.01600
Br3143     Br  0.59120321  0.09717025  0.61236228    -0.01600
Br3144     Br  0.59346084  0.15695241  0.56377399    -0.01500
C3145       C  0.50077106  0.98336614  0.29481627    -0.02700
C3146       C  0.48796907  0.99905627  0.28260355     0.07000
C3147       C  0.48973099  0.01927083  0.24629569    -0.02800
C3148       C  0.50388980  0.02296142  0.22153618    -0.02800
C3149       C  0.51654940  0.00660584  0.23253417     0.07100
C3150       C  0.51489884  0.98689732  0.26985433    -0.03000
Br3151     Br  0.53214443  0.96553009  0.29033666    -0.01500
Br3152     Br  0.49927495  0.95835218  0.34900373    -0.01600
Br3153     Br  0.50569194  0.04991286  0.17079538    -0.01600
Br3154     Br  0.47272264  0.04158361  0.22779820    -0.01500
C3155       C  0.55030820  0.01238755  0.92506197    -0.02700
C3156       C  0.56124811  0.99503468  0.94566398     0.07000
C3157       C  0.57111641  0.98068987  0.91307046    -0.02800
C3158       C  0.57151620  0.98662510  0.86158309    -0.02800
C3159       C  0.56124973  0.00530859  0.84143763     0.07100
C3160       C  0.55028954  0.01754853  0.87321763    -0.03000
Br3161     Br  0.53457399  0.04038497  0.84611291    -0.01500
Br3162     Br  0.53417695  0.02666282  0.96705287    -0.01600
Br3163     Br  0.58689412  0.97019679  0.81936047    -0.01600
Br3164     Br  0.58393903  0.95216759  0.93714630    -0.01500
C3165       C  0.57424304  0.98961370  0.41571527    -0.02700
C3166       C  0.56269674  0.00187949  0.44538695     0.07000
C3167       C  0.55153547  0.01780082  0.42202075    -0.02800
C3168       C  0.55204479  0.02188284  0.36985839    -0.02800
C3169       C  0.56376685  0.01011445  0.34047255     0.07100
C3170       C  0.57475731  0.99378556  0.36357242    -0.03000
Br3171     Br  0.59089005  0.97765824  0.32403954    -0.01500
Br3172     Br  0.58982919  0.96741097  0.44565147    -0.01600
Br3173     Br  0.53580223  0.04207700  0.33875471    -0.01600
Br3174     Br  0.53471590  0.03234357  0.46059417    -0.01500
C3175       C  0.54616235  0.11462439  0.07708522    -0.02700
C3176       C  0.56005055  0.10098481  0.08577942     0.07000
C3177       C  0.57413797  0.11385670  0.07625475    -0.02800
C3178       C  0.57426819  0.13971423  0.05677993    -0.02800
C3179       C  0.56034764  0.15346094  0.04907772     0.07100
C3180       C  0.54634577  0.14098465  0.06067595    -0.03000
Br3181     Br  0.52733125  0.16044096  0.05753887    -0.01500
Br3182     Br  0.52670094  0.09688819  0.08418636    -0.01600
Br3183     Br  0.59358433  0.15568689  0.03853672    -0.01600
Br3184     Br  0.59338726  0.09676937  0.09198299    -0.01500
C3185       C  0.74993919  0.01602112  0.92425660    -0.02700
C3186       C  0.73758586  0.99874274  0.91378585     0.07000
C3187       C  0.74002524  0.97795835  0.87869555    -0.02800
C3188       C  0.75374252  0.97652510  0.85066633    -0.02800
C3189       C  0.76564586  0.99477537  0.85895386     0.07100
C3190       C  0.76374416  0.01427359  0.89673977    -0.03000
Br3191     Br  0.78014983  0.03838828  0.91300766    -0.01500
Br3192     Br  0.74857919  0.04095818  0.97935580    -0.01600
Br3193     Br  0.75582350  0.95039236  0.79810601    -0.01600
Br3194     Br  0.72509771  0.95054381  0.86836191    -0.01500
C3195       C  0.68101310  0.11398548  0.05544255    -0.02700
C3196       C  0.69497086  0.10001158  0.05181707     0.07000
C3197       C  0.70872302  0.11210032  0.06724618    -0.02800
C3198       C  0.70858230  0.13819750  0.08557491    -0.02800
C3199       C  0.69451940  0.15192082  0.09146912     0.07100
C3200       C  0.68070208  0.13956282  0.07636118    -0.03000
Br3201     Br  0.66110113  0.15663140  0.08673983    -0.01500
Br3202     Br  0.66233166  0.09844297  0.02977794    -0.01600
Br3203     Br  0.72791633  0.15530238  0.09972928    -0.01600
Br3204     Br  0.72771619  0.09239746  0.06590229    -0.01500
C3205       C  0.63715396  0.00005672  0.11839915    -0.02700
C3206       C  0.64395706  0.00037648  0.07051639     0.07000
C3207       C  0.63466189  0.00218985  0.02743899    -0.02800
C3208       C  0.61858992  0.00240900  0.03233853    -0.02800
C3209       C  0.61178294  0.99940601  0.07993703     0.07100
C3210       C  0.62109972  0.99866827  0.12307199    -0.03000
Br3211     Br  0.61190917  0.99436575  0.18827603    -0.01500
Br3212     Br  0.64985904  0.00240929  0.17739056    -0.01600
Br3213     Br  0.60594020  0.00679855  0.97384738    -0.01600
Br3214     Br  0.64389618  0.00254564  0.96156042    -0.01500
C3215       C  0.74397909  0.03108962  0.38105417    -0.02700
C3216       C  0.73745744  0.01186878  0.41322941     0.07000
C3217       C  0.74523070  0.98727533  0.41789482    -0.02800
C3218       C  0.75836557  0.98178964  0.38839506    -0.02800
C3219       C  0.76325917  0.99977350  0.35093683     0.07100
C3220       C  0.75549162  0.02397218  0.34664796    -0.03000
Br3221     Br  0.75925042  0.04627463  0.28990782    -0.01500
Br3222     Br  0.73919978  0.06827289  0.38771507    -0.01600
Br3223     Br  0.76986169  0.94986155  0.40211320    -0.01600
Br3224     Br  0.73906326  0.96122281  0.46692131    -0.01500
C3225       C  0.68329010  0.02385175  0.71847601    -0.02700
C3226       C  0.68807848  0.99989073  0.69584230     0.07000
C3227       C  0.69135257  0.97792959  0.72669372    -0.02800
C3228       C  0.68913860  0.97952462  0.77879647    -0.02800
C3229       C  0.68641241  0.00430903  0.80183898     0.07100
C3230       C  0.68309661  0.02635731  0.77112049    -0.03000
Br3231     Br  0.67708664  0.05985589  0.80050015    -0.01500
Br3232     Br  0.67609192  0.05314528  0.67838983    -0.01600
Br3233     Br  0.68899852  0.94698147  0.81637651    -0.01600
Br3234     Br  0.70031863  0.94598525  0.69914322    -0.01500
C3235       C  0.68600466  0.97940334  0.22823965    -0.02700
C3236       C  0.69417193  0.99713658  0.19676378     0.07000
C3237       C  0.70135975  0.01933557  0.21853099    -0.02800
C3238       C  0.69973354  0.02458122  0.27022739    -0.02800
C3239       C  0.69105349  0.00748653  0.30112110     0.07100
C3240       C  0.68413591  0.98503383  0.27966021    -0.03000
Br3241     Br  0.67088939  0.96300562  0.31995227    -0.01500
Br3242     Br  0.67679893  0.94729110  0.20252774    -0.01600
Br3243     Br  0.70991399  0.05509981  0.29796070    -0.01600
Br3244     Br  0.71454385  0.04160619  0.17849723    -0.01500
C3245       C  0.70698229  0.11553309  0.56155722    -0.02700
C3246       C  0.69311470  0.10188164  0.55294720     0.07000
C3247       C  0.67901339  0.11437639  0.56399208    -0.02800
C3248       C  0.67879244  0.13960746  0.58628875    -0.02800
C3249       C  0.69262760  0.15338405  0.59460906     0.07100
C3250       C  0.70669136  0.14145518  0.58095381    -0.03000
Br3251     Br  0.72555497  0.16109060  0.58554102    -0.01500
Br3252     Br  0.72649359  0.09856863  0.54879323    -0.01600
Br3253     Br  0.65945793  0.15456624  0.60769153    -0.01600
Br3254     Br  0.65985738  0.09784032  0.54529976    -0.01500
C3255       C  0.61951837  0.99176344  0.61929754    -0.02700
C3256       C  0.60966422  0.00273809  0.58330558     0.07000
C3257       C  0.61583981  0.01496207  0.54039432    -0.02800
C3258       C  0.63174292  0.01350073  0.53083108    -0.02800
C3259       C  0.64150322  0.00066166  0.56513406     0.07100
C3260       C  0.63538582  0.99070111  0.61036182    -0.03000
Br3261     Br  0.64861311  0.97529449  0.66037092    -0.01500
Br3262     Br  0.61112793  0.97864552  0.68132286    -0.01600
Br3263     Br  0.63992687  0.02696252  0.46892017    -0.01600
Br3264     Br  0.60246357  0.03294841  0.49410619    -0.01500
C3265       C  0.50091156  0.73532652  0.67745757    -0.02700
C3266       C  0.51347992  0.75110851  0.66332233     0.07000
C3267       C  0.51153443  0.77022750  0.62515055    -0.02800
C3268       C  0.49735871  0.77281373  0.60055438    -0.02800
C3269       C  0.48481169  0.75716446  0.61477170     0.07100
C3270       C  0.48667117  0.73815797  0.65316251    -0.03000
Br3271     Br  0.46966175  0.71663648  0.67517610    -0.01500
Br3272     Br  0.50284636  0.71094053  0.73252628    -0.01600
Br3273     Br  0.49549819  0.79633106  0.54418829    -0.01600
Br3274     Br  0.52829730  0.79237859  0.60353569    -0.01500
C3275       C  0.55016297  0.89103955  0.68879120    -0.02700
C3276       C  0.56398155  0.90547722  0.68833867     0.07000
C3277       C  0.57805413  0.89231025  0.69629258    -0.02800
C3278       C  0.57841500  0.86482649  0.70230255    -0.02800
C3279       C  0.56459631  0.85028044  0.70289779     0.07100
C3280       C  0.55043081  0.86364107  0.69753187    -0.03000
Br3281     Br  0.53125085  0.84509277  0.70548659    -0.01500
Br3282     Br  0.53089463  0.90826883  0.67411485    -0.01600
Br3283     Br  0.59813778  0.84734749  0.70773114    -0.01600
Br3284     Br  0.59703195  0.91186260  0.70048183    -0.01500
C3285       C  0.51181750  0.76981704  0.12111213    -0.02700
C3286       C  0.51408535  0.75019959  0.15821258     0.07000
C3287       C  0.50166784  0.73381700  0.17126643    -0.02800
C3288       C  0.48708490  0.73761898  0.14941749    -0.02800
C3289       C  0.48486492  0.75699456  0.11186437     0.07100
C3290       C  0.49740560  0.77278842  0.09744741    -0.03000
Br3291     Br  0.49510287  0.79746345  0.04284808    -0.01500
Br3292     Br  0.52855836  0.79197016  0.09994130    -0.01600
Br3293     Br  0.47001295  0.71732692  0.17461977    -0.01600
Br3294     Br  0.50446639  0.70644738  0.22048864    -0.01500
C3295       C  0.57882373  0.86401569  0.20071595    -0.02700
C3296       C  0.56466690  0.85044838  0.20224272     0.07000
C3297       C  0.55084988  0.86480073  0.19613045    -0.02800
C3298       C  0.55132010  0.89231983  0.18829833    -0.02800
C3299       C  0.56546675  0.90582028  0.19038544     0.07100
C3300       C  0.57913101  0.89159847  0.19808984    -0.03000
Br3301     Br  0.59834328  0.90998390  0.20808635    -0.01500
Br3302     Br  0.59808600  0.84509953  0.19842176    -0.01600
Br3303     Br  0.53266611  0.91115782  0.17229931    -0.01600
Br3304     Br  0.53120175  0.84744268  0.20061855    -0.01500
C3305       C  0.54866135  0.74130812  0.96562961    -0.02700
C3306       C  0.55834722  0.76003304  0.94322766     0.07000
C3307       C  0.56801076  0.77586082  0.97379752    -0.02800
C3308       C  0.56914091  0.77094988  0.02553571    -0.02800
C3309       C  0.56015231  0.75100771  0.04756742     0.07100
C3310       C  0.54941768  0.73698164  0.01764491    -0.03000
Br3311     Br  0.53478557  0.71310603  0.04758498    -0.01500
Br3312     Br  0.53341239  0.72317799  0.92565498    -0.01600
Br3313     Br  0.58362283  0.79097720  0.06535980    -0.01600
Br3314     Br  0.58018955  0.80416240  0.94570794    -0.01500
C3315       C  0.57404565  0.75768204  0.52619975    -0.02700
C3316       C  0.56126660  0.74548997  0.54839411     0.07000
C3317       C  0.54919671  0.73597618  0.51766203    -0.02800
C3318       C  0.54975388  0.73940276  0.46527656    -0.02800
C3319       C  0.56249695  0.75185710  0.44311973     0.07100
C3320       C  0.57471845  0.76075200  0.47382765    -0.03000
Br3321     Br  0.59287277  0.77620538  0.44458330    -0.01500
Br3322     Br  0.59112118  0.76881330  0.56737747    -0.01600
Br3323     Br  0.53256150  0.72846338  0.42437004    -0.01600
Br3324     Br  0.53149216  0.71900583  0.54686549    -0.01500
C3325       C  0.75458587  0.78061994  0.00630651    -0.02700
C3326       C  0.76163694  0.76342223  0.04146635     0.07000
C3327       C  0.75330750  0.74116742  0.05757799    -0.02800
C3328       C  0.73946286  0.73409725  0.03361245    -0.02800
C3329       C  0.73381460  0.74915051  0.99284455     0.07100
C3330       C  0.74168492  0.77217869  0.97894929    -0.03000
Br3331     Br  0.73598681  0.79048908  0.91849294    -0.01500
Br3332     Br  0.76055460  0.81723377  0.99999938    -0.01600
Br3333     Br  0.72822608  0.70403372  0.05835957    -0.01600
Br3334     Br  0.75958118  0.72276601  0.11750767    -0.01500
C3335       C  0.66846210  0.86337122  0.95588890    -0.02700
C3336       C  0.68223490  0.84867640  0.95661903     0.07000
C3337       C  0.69635677  0.86197344  0.96266675    -0.02800
C3338       C  0.69670312  0.88964427  0.96634064    -0.02800
C3339       C  0.68302951  0.90425812  0.96182366     0.07100
C3340       C  0.66890539  0.89107884  0.95652055    -0.03000
Br3341     Br  0.65018203  0.91099772  0.94784303    -0.01500
Br3342     Br  0.64887759  0.84558668  0.95762712    -0.01600
Br3343     Br  0.71585264  0.90738906  0.98061643    -0.01600
Br3344     Br  0.71542691  0.84294809  0.96466546    -0.01500
C3345       C  0.63430887  0.75763579  0.78351646    -0.02700
C3346       C  0.64033745  0.75733542  0.83265977     0.07000
C3347       C  0.63032765  0.75470633  0.87370936    -0.02800
C3348       C  0.61438410  0.75365890  0.86570694    -0.02800
C3349       C  0.60833565  0.75715331  0.81713400     0.07100
C3350       C  0.61833485  0.75847942  0.77583784    -0.03000
Br3351     Br  0.61009569  0.76188704  0.70894825    -0.01500
Br3352     Br  0.64776557  0.75480297  0.72673442    -0.01600
Br3353     Br  0.60095005  0.74584630  0.92079449    -0.01600
Br3354     Br  0.63844403  0.75357552  0.94106516    -0.01500
C3355       C  0.73913659  0.76287918  0.53639992    -0.02700
C3356       C  0.73634901  0.74512160  0.49623325     0.07000
C3357       C  0.74857517  0.73004841  0.47690271    -0.02800
C3358       C  0.76344610  0.73270846  0.49707276    -0.02800
C3359       C  0.76628321  0.75094294  0.53639166     0.07100
C3360       C  0.75397618  0.76538802  0.55680490    -0.03000
Br3361     Br  0.75734612  0.78720405  0.61522116    -0.01500
Br3362     Br  0.72276249  0.78384883  0.56448432    -0.01600
Br3363     Br  0.77989727  0.71185319  0.46892407    -0.01600
Br3364     Br  0.74514693  0.70733859  0.41987332    -0.01500
C3365       C  0.69349825  0.86093732  0.49587421    -0.02700
C3366       C  0.69444853  0.85046893  0.44702030     0.07000
C3367       C  0.69808860  0.86728945  0.40663393    -0.02800
C3368       C  0.69884172  0.89480044  0.41404215    -0.02800
C3369       C  0.69544664  0.90552080  0.46167765     0.07100
C3370       C  0.69386219  0.88840779  0.50318812    -0.03000
Br3371     Br  0.69244541  0.90242285  0.57068917    -0.01500
Br3372     Br  0.69106084  0.83804866  0.55275720    -0.01600
Br3373     Br  0.70403257  0.91736919  0.35847980    -0.01600
Br3374     Br  0.70229106  0.85248260  0.34113814    -0.01500
C3375       C  0.69844520  0.73380029  0.63804253    -0.02700
C3376       C  0.68879375  0.74945629  0.60722527     0.07000
C3377       C  0.68045148  0.77039696  0.62907876    -0.02800
C3378       C  0.68230520  0.77652758  0.68033991    -0.02800
C3379       C  0.69092401  0.75947910  0.71185110     0.07100
C3380       C  0.69902496  0.73817630  0.69019196    -0.03000
Br3381     Br  0.71176757  0.71567148  0.73143679    -0.01500
Br3382     Br  0.71175240  0.70704895  0.60955485    -0.01600
Br3383     Br  0.67250173  0.80814974  0.70615364    -0.01600
Br3384     Br  0.66508524  0.78881655  0.59032992    -0.01500
C3385       C  0.67958921  0.73242876  0.18974655    -0.02700
C3386       C  0.68954427  0.75137114  0.21121077     0.07000
C3387       C  0.69845886  0.76751651  0.17969485    -0.02800
C3388       C  0.69729699  0.76504237  0.12722074    -0.02800
C3389       C  0.68751095  0.74589981  0.10577177     0.07100
C3390       C  0.67880147  0.72939916  0.13719590    -0.03000
Br3391     Br  0.66530724  0.70336072  0.10806497    -0.01500
Br3392     Br  0.66618900  0.71182046  0.23188839    -0.01600
Br3393     Br  0.70957540  0.78747853  0.08489929    -0.01600
Br3394     Br  0.71279863  0.79236249  0.20844003    -0.01500
C3395       C  0.63213068  0.73938544  0.36208224    -0.02700
C3396       C  0.64205681  0.75533418  0.33333169     0.07000
C3397       C  0.63652388  0.76648577  0.28819860    -0.02800
C3398       C  0.62095299  0.76413945  0.27507331    -0.02800
C3399       C  0.61069341  0.75088302  0.30677403     0.07100
C3400       C  0.61653487  0.73671827  0.34816038    -0.03000
Br3401     Br  0.60325671  0.71361593  0.38552582    -0.01500
Br3402     Br  0.63952061  0.72276425  0.42238363    -0.01600
Br3403     Br  0.61363021  0.77764724  0.21190378    -0.01600
Br3404     Br  0.65023728  0.78446529  0.24294373    -0.01500
C3405       C  0.50226050  0.52393662  0.98382566    -0.02700
C3406       C  0.51481417  0.50653898  0.98902482     0.07000
C3407       C  0.51376981  0.48572056  0.02448025    -0.02800
C3408       C  0.50058600  0.48291635  0.05475723    -0.02800
C3409       C  0.48801916  0.50025636  0.04942812     0.07100
C3410       C  0.48898090  0.52083717  0.01354145    -0.03000
Br3411     Br  0.47177208  0.54394463  0.00105669    -0.01500
Br3412     Br  0.50288783  0.55150085  0.93393194    -0.01600
Br3413     Br  0.50017625  0.45615888  0.10625091    -0.01600
Br3414     Br  0.53079296  0.46203581  0.03618704    -0.01500
C3415       C  0.57711920  0.39309531  0.94161126    -0.02700
C3416       C  0.56303608  0.40673737  0.93842635     0.07000
C3417       C  0.54913194  0.39254045  0.94066942    -0.02800
C3418       C  0.54937358  0.36486554  0.94696347    -0.02800
C3419       C  0.56353327  0.35127477  0.94941854     0.07100
C3420       C  0.57735122  0.36550446  0.94499078    -0.03000
Br3421     Br  0.59675692  0.34705279  0.94077008    -0.01500
Br3422     Br  0.59628951  0.41229823  0.94317166    -0.01600
Br3423     Br  0.53031959  0.34589586  0.95342090    -0.01600
Br3424     Br  0.52979734  0.41072785  0.93287896    -0.01500
C3425       C  0.57088257  0.61685708  0.83485644    -0.02700
C3426       C  0.55677783  0.60392262  0.84335983     0.07000
C3427       C  0.54286843  0.61710515  0.83325676    -0.02800
C3428       C  0.54302884  0.64301924  0.81483384    -0.02800
C3429       C  0.55710808  0.65571163  0.80482792     0.07100
C3430       C  0.57105667  0.64245139  0.81464094    -0.03000
Br3431     Br  0.59050807  0.65843757  0.79768764    -0.01500
Br3432     Br  0.59006518  0.60021204  0.85315937    -0.01600
Br3433     Br  0.52375309  0.66118218  0.80540969    -0.01600
Br3434     Br  0.52343275  0.59942370  0.84214850    -0.01500
C3435       C  0.51177929  0.52199869  0.53880553    -0.02700
C3436       C  0.51466367  0.51117504  0.49042505     0.07000
C3437       C  0.50346474  0.49495514  0.46823154    -0.02800
C3438       C  0.48965536  0.48939390  0.49388529    -0.02800
C3439       C  0.48696376  0.49947099  0.54308046     0.07100
C3440       C  0.49820419  0.51572448  0.56523348    -0.03000
Br3441     Br  0.49553935  0.52791240  0.63345330    -0.01500
Br3442     Br  0.52651255  0.54500742  0.57062778    -0.01600
Br3443     Br  0.47424010  0.46898664  0.45915498    -0.01600
Br3444     Br  0.50674372  0.48153599  0.40111759    -0.01500
C3445       C  0.57408014  0.39312432  0.44760756    -0.02700
C3446       C  0.55945084  0.40463985  0.44255473     0.07000
C3447       C  0.54628740  0.38863488  0.44385739    -0.02800
C3448       C  0.54777155  0.36104992  0.44970638    -0.02800
C3449       C  0.56251907  0.34939487  0.45279668     0.07100
C3450       C  0.57566519  0.36565121  0.45124286    -0.03000
Br3451     Br  0.59604740  0.35044506  0.44971498    -0.01500
Br3452     Br  0.59212513  0.41529048  0.44786833    -0.01600
Br3453     Br  0.52955750  0.33960652  0.45442645    -0.01600
Br3454     Br  0.52634587  0.40457805  0.43583143    -0.01500
C3455       C  0.55318711  0.48754105  0.61304384    -0.02700
C3456       C  0.56229437  0.50747379  0.59112275     0.07000
C3457       C  0.56910925  0.52690784  0.62215533    -0.02800
C3458       C  0.56701747  0.52626240  0.67444526    -0.02800
C3459       C  0.55868016  0.50541583  0.69645141     0.07100
C3460       C  0.55144991  0.48651564  0.66544036    -0.03000
Br3461     Br  0.53819995  0.46013339  0.69465765    -0.01500
Br3462     Br  0.54204977  0.46253310  0.57190844    -0.01600
Br3463     Br  0.57607849  0.55381172  0.71527889    -0.01600
Br3464     Br  0.58191163  0.55412483  0.59347091    -0.01500
C3465       C  0.57626754  0.50456699  0.11610214    -0.02700
C3466       C  0.56256070  0.51161132  0.09196036     0.07000
C3467       C  0.54949892  0.51814596  0.12104925    -0.02800
C3468       C  0.54960287  0.51452751  0.17322934    -0.02800
C3469       C  0.56323664  0.50696858  0.19757115     0.07100
C3470       C  0.57672560  0.50286250  0.16885766    -0.03000
Br3471     Br  0.59614355  0.49696952  0.20134443    -0.01500
Br3472     Br  0.59466609  0.49965439  0.07685150    -0.01600
Br3473     Br  0.53069394  0.51844743  0.21059633    -0.01600
Br3474     Br  0.53154909  0.53357569  0.09085350    -0.01500
C3475       C  0.54429886  0.61468503  0.32774235    -0.02700
C3476       C  0.55850314  0.60208645  0.33688497     0.07000
C3477       C  0.57228254  0.61504597  0.32425010    -0.02800
C3478       C  0.57185745  0.64016129  0.30201909    -0.02800
C3479       C  0.55766959  0.65298285  0.29391460     0.07100
C3480       C  0.54390470  0.64019119  0.30708877    -0.03000
Br3481     Br  0.52448421  0.65815035  0.30049593    -0.01500
Br3482     Br  0.52520163  0.59693045  0.34232939    -0.01600
Br3483     Br  0.59085800  0.65663612  0.28158620    -0.01600
Br3484     Br  0.59188272  0.59952914  0.34064163    -0.01500
C3485       C  0.74610227  0.52964480  0.64932675    -0.02700
C3486       C  0.73537575  0.50885966  0.65453650     0.07000
C3487       C  0.73879033  0.48442099  0.63041506    -0.02800
C3488       C  0.75286704  0.48050730  0.60495716    -0.02800
C3489       C  0.76400042  0.50080362  0.60314387     0.07100
C3490       C  0.75958499  0.52624235  0.62052237    -0.03000
Br3491     Br  0.77058681  0.55760848  0.60038185    -0.01500
Br3492     Br  0.74326604  0.56265760  0.68480738    -0.01600
Br3493     Br  0.75583232  0.44815501  0.56695940    -0.01600
Br3494     Br  0.72429277  0.45578098  0.62947533    -0.01500
C3495       C  0.69051306  0.39690018  0.65634461    -0.02700
C3496       C  0.69007870  0.40647158  0.70602884     0.07000
C3497       C  0.69103175  0.38855791  0.74644032    -0.02800
C3498       C  0.69089222  0.36118971  0.73747438    -0.02800
C3499       C  0.69048655  0.35151000  0.68781846     0.07100
C3500       C  0.69110031  0.36952633  0.64731904    -0.03000
Br3501     Br  0.69303523  0.35695355  0.57894129    -0.01500
Br3502     Br  0.68899927  0.42083994  0.60029734    -0.01600
Br3503     Br  0.68999224  0.33745520  0.79382952    -0.01600
Br3504     Br  0.69272775  0.40143737  0.81468906    -0.01500
C3505       C  0.67731507  0.61568296  0.81025862    -0.02700
C3506       C  0.69158490  0.60370957  0.79876124     0.07000
C3507       C  0.70528999  0.61789741  0.80712653    -0.02800
C3508       C  0.70475318  0.64338337  0.82832729    -0.02800
C3509       C  0.69054852  0.65490344  0.84155020     0.07100
C3510       C  0.67681862  0.64111444  0.83176447    -0.03000
Br3511     Br  0.65726790  0.65633196  0.85036539    -0.01500
Br3512     Br  0.65824587  0.59781581  0.79516147    -0.01600
Br3513     Br  0.72360959  0.66271743  0.83822280    -0.01600
Br3514     Br  0.72500767  0.60217728  0.79245729    -0.01500
C3515       C  0.63397123  0.50276594  0.86073026    -0.02700
C3516       C  0.64030947  0.50205792  0.81200017     0.07000
C3517       C  0.63054602  0.50098899  0.77004486    -0.02800
C3518       C  0.61452797  0.50056310  0.77675678    -0.02800
C3519       C  0.60819579  0.50204778  0.82543896     0.07100
C3520       C  0.61795010  0.50318057  0.86738736    -0.03000
Br3521     Br  0.60928056  0.50254480  0.93399413    -0.01500
Br3522     Br  0.64713810  0.50044605  0.91853508    -0.01600
Br3523     Br  0.60135520  0.49551562  0.71947458    -0.01600
Br3524     Br  0.63922991  0.49775136  0.70369796    -0.01500
C3525       C  0.75982369  0.48734786  0.17068773    -0.02700
C3526       C  0.76401084  0.49678355  0.12261033     0.07000
C3527       C  0.75377977  0.51312638  0.09620929    -0.02800
C3528       C  0.73934304  0.51943428  0.11688224    -0.02800
C3529       C  0.73516983  0.51009463  0.16504320     0.07100
C3530       C  0.74558568  0.49437712  0.19204955    -0.03000
Br3531     Br  0.74066877  0.48382794  0.25967572    -0.01500
Br3532     Br  0.77369665  0.46550841  0.20887607    -0.01600
Br3533     Br  0.72510459  0.53975166  0.07719065    -0.01600
Br3534     Br  0.75928177  0.52582929  0.03041419    -0.01500
C3535       C  0.70236333  0.38987123  0.21526321    -0.02700
C3536       C  0.68923587  0.40470574  0.20246310     0.07000
C3537       C  0.67609948  0.39167460  0.18519650    -0.02800
C3538       C  0.67532588  0.36407750  0.18576054    -0.02800
C3539       C  0.68861444  0.34873679  0.19614807     0.07100
C3540       C  0.70224271  0.36198077  0.21097763    -0.03000
Br3541     Br  0.72082536  0.34265147  0.22570871    -0.01500
Br3542     Br  0.72043905  0.40793917  0.23894813    -0.01600
Br3543     Br  0.65526829  0.34837311  0.17734989    -0.01600
Br3544     Br  0.65936278  0.41190327  0.15758324    -0.01500
C3545       C  0.69639962  0.48454774  0.97554479    -0.02700
C3546       C  0.68951453  0.50388566  0.94479041     0.07000
C3547       C  0.68238835  0.52606203  0.96747689    -0.02800
C3548       C  0.68091459  0.52750757  0.02006537    -0.02800
C3549       C  0.68756605  0.50789681  0.05093031     0.07100
C3550       C  0.69561948  0.48668518  0.02820435    -0.03000
Br3551     Br  0.70671452  0.46129216  0.06838891    -0.01500
Br3552     Br  0.70815537  0.45609340  0.94568076    -0.01600
Br3553     Br  0.66893077  0.55591765  0.04914492    -0.01600
Br3554     Br  0.67438763  0.55477793  0.92743165    -0.01500
C3555       C  0.69938091  0.51626519  0.46844024    -0.02700
C3556       C  0.68777964  0.50119165  0.44568962     0.07000
C3557       C  0.67575014  0.49067808  0.47502435    -0.02800
C3558       C  0.67554067  0.49482587  0.52717429    -0.02800
C3559       C  0.68720349  0.50975462  0.54996888     0.07100
C3560       C  0.69897414  0.52094179  0.52035247    -0.03000
Br3561     Br  0.71489210  0.54227844  0.55028841    -0.01500
Br3562     Br  0.71634332  0.52914977  0.42887211    -0.01600
Br3563     Br  0.65880475  0.48147756  0.56708789    -0.01600
Br3564     Br  0.65910788  0.47155366  0.44389477    -0.01500
C3565       C  0.67698932  0.64148256  0.34069876    -0.02700
C3566       C  0.69123482  0.65217175  0.35631064     0.07000
C3567       C  0.70465802  0.63663187  0.35111813    -0.02800
C3568       C  0.70384908  0.61103507  0.33016846    -0.02800
C3569       C  0.68975295  0.60094827  0.31251106     0.07100
C3570       C  0.67629837  0.61613532  0.31863036    -0.03000
Br3571     Br  0.65687098  0.60265145  0.29513908    -0.01500
Br3572     Br  0.65811018  0.66091149  0.35100162    -0.01600
Br3573     Br  0.72202856  0.58918424  0.32804795    -0.01600
Br3574     Br  0.72446174  0.65058889  0.36950276    -0.01500
C3575       C  0.63036913  0.47352314  0.29618552    -0.02700
C3576       C  0.63973173  0.49387135  0.31536550     0.07000
C3577       C  0.63305349  0.51360103  0.34611801    -0.02800
C3578       C  0.61713957  0.51318698  0.35653287    -0.02800
C3579       C  0.60786095  0.49237858  0.33825190     0.07100
C3580       C  0.61477726  0.47203233  0.30924437    -0.03000
Br3581     Br  0.60324009  0.44163816  0.28589794    -0.01500
Br3582     Br  0.63865813  0.44807419  0.24936743    -0.01600
Br3583     Br  0.60846176  0.53988306  0.39987575    -0.01600
Br3584     Br  0.64580761  0.54005603  0.37758255    -0.01500
loop_ 
_geom_bond_atom_site_label_1 
_geom_bond_atom_site_label_2 
_geom_bond_distance 
_geom_bond_site_symmetry_2 
_ccdc_geom_bond_type 
O1           Ni7   1.944       .  S
O1           C22   1.276       .  A
O2          Ni25   1.929       .  S
O2           C11   1.270       .  A
O3           Ni7   1.904       .  S
O3          Ni25   1.908       .  S
O3          Ni19   1.908       .  S
O3           H26   0.966       .  S
C4           O21   1.276       .  A
C4           O13   1.273       .  A
C4         C3556   1.469       .  S
O5          Ni24   1.915       .  S
O5           C11   1.267       .  A
O6          Ni24   1.904       .  S
O6            C8   1.269       .  A
Ni7          O10   1.926       .  S
Ni7          O12   1.909       .  S
C8           O18   1.274       .  A
C8         C3576   1.490       .  S
O9          Ni25   1.921       .  S
O9           C15   1.280       .  A
O10          C15   1.279       .  A
C11        C3536   1.478       .  S
O12          C14   1.269       .  A
O13         Ni24   1.910       .  S
C14          O20   1.274       .  A
C14        C3529   1.485       .  S
C15        C3549   1.489       .  S
H16          O17   0.966       .  S
O17         Ni25   1.920       .  S
O17         Ni19   1.907       .  S
O17         Ni24   1.911       .  S
O18         Ni19   1.938       .  S
Ni19         O23   1.910       .  S
Ni19         O21   1.917       .  S
O20         Ni25   1.932       .  S
C22          O23   1.270       .  A
C22        C3569   1.488       .  S
O27         Ni33   1.928       .  S
O27          C48   1.274       .  A
O28         Ni51   1.912       .  S
O28          C37   1.268       .  A
O29         Ni33   1.900       .  S
O29         Ni51   1.897       .  S
O29         Ni45   1.912       .  S
O29          H52   0.966       .  S
C30          O47   1.276       .  A
C30          O39   1.279       .  A
C30        C3546   1.488       .  S
O31         Ni50   1.919       .  S
O31          C37   1.267       .  A
O32         Ni50   1.895       .  S
O32          C34   1.264       .  A
Ni33         O36   1.908       .  S
Ni33         O38   1.922       .  S
C34          O44   1.274       .  A
C34        C3516   1.475       .  S
O35         Ni51   1.929       .  S
O35          C41   1.282       .  A
O36          C41   1.275       .  A
C37        C3496   1.477       .  S
O38          C40   1.273       .  A
O39         Ni50   1.928       .  S
C40          O46   1.274       .  A
C40        C3486   1.512       .  S
C41        C3559   1.470       .  S
H42          O43   0.966       .  S
O43         Ni51   1.919       .  S
O43         Ni45   1.894       .  S
O43         Ni50   1.905       .  S
O44         Ni45   1.943       .  S
Ni45         O49   1.897       .  S
Ni45         O47   1.915       .  S
O46         Ni51   1.938       .  S
C48          O49   1.266       .  A
C48        C3506   1.483       .  S
O53         Ni59   1.927       .  S
O53          C74   1.271       .  A
O54         Ni77   1.926       .  S
O54          C63   1.272       .  A
O55         Ni59   1.908       .  S
O55         Ni77   1.903       .  S
O55         Ni71   1.899       .  S
O55          H78   0.982       .  S
C56          O73   1.268       .  A
C56          O65   1.267       .  A
C56        C3469   1.482       .  S
O57         Ni76   1.895       .  S
O57          C63   1.263       .  A
O58         Ni76   1.900       .  S
O58          C60   1.266       .  A
Ni59         O62   1.908       .  S
Ni59         O64   1.910       .  S
C60          O70   1.280       .  A
C60        C3579   1.493       .  S
O61         Ni77   1.921       .  S
O61          C67   1.278       .  A
O62          C67   1.273       .  A
C63        C3446   1.470       .  S
O64          C66   1.270       .  A
O65         Ni76   1.929       .  S
C66          O72   1.279       .  A
C66        C3436   1.497       .  S
C67        C3456   1.479       .  S
H68          O69   0.965       .  S
O69         Ni77   1.943       .  S
O69         Ni71   1.920       .  S
O69         Ni76   1.922       .  S
O70         Ni71   1.963       .  S
Ni71         O75   1.904       .  S
Ni71         O73   1.909       .  S
O72         Ni77   1.948       .  S
C74          O75   1.266       .  A
C74        C3476   1.480       .  S
O79         Ni85   1.924       .  S
O79         C100   1.271       .  A
O80        Ni103   1.922       .  S
O80          C89   1.271       .  A
O81         Ni85   1.906       .  S
O81        Ni103   1.900       .  S
O81         Ni97   1.910       .  S
O81         H104   0.966       .  S
C82          O99   1.272       .  A
C82          O91   1.272       .  A
C82        C3459   1.479       .  S
O83        Ni102   1.905       .  S
O83          C89   1.266       .  A
O84        Ni102   1.895       .  S
O84          C86   1.265       .  A
Ni85         O88   1.906   1_556  S
Ni85         O90   1.915       .  S
C86          O96   1.274       .  A
C86        C3519   1.474       .  S
O87        Ni103   1.943   1_554  S
O87          C93   1.286       .  A
O88          C93   1.273       .  A
C89        C3416   1.476       .  S
O90          C92   1.272       .  A
O91        Ni102   1.913       .  S
C92          O98   1.271       .  A
C92        C3406   1.496       .  S
C93        C3466   1.477       .  S
H94          O95   0.966       .  S
O95        Ni103   1.928       .  S
O95         Ni97   1.903       .  S
O95        Ni102   1.910       .  S
O96         Ni97   1.941       .  S
Ni97        O101   1.895       .  S
Ni97         O99   1.914       .  S
O98        Ni103   1.927       .  S
C100        O101   1.264       .  A
C100       C3426   1.476       .  S
O105       Ni111   1.939       .  S
O105        C126   1.275       .  A
O106       Ni129   1.912       .  S
O106        C115   1.268       .  A
O107       Ni111   1.907       .  S
O107       Ni129   1.906       .  S
O107       Ni123   1.917       .  S
O107        H130   0.967       .  S
C108        O125   1.277       .  A
C108        O117   1.277       .  A
C108       C3386   1.481       .  S
O109       Ni128   1.922       .  S
O109        C115   1.270       .  A
O110       Ni128   1.911       .  S
O110        C112   1.270       .  A
Ni111       O114   1.919       .  S
Ni111       O116   1.923       .  S
C112        O122   1.273       .  A
C112       C3396   1.489       .  S
O113       Ni129   1.929       .  S
O113        C119   1.280       .  A
O114        C119   1.276       .  A
C115       C3366   1.477       .  S
O116        C118   1.273       .  A
O117       Ni128   1.926       .  S
C118        O124   1.271       .  A
C118       C3356   1.486       .  S
C119       C3376   1.488       .  S
H120        O121   0.966       .  S
O121       Ni129   1.921       .  S
O121       Ni123   1.900       .  S
O121       Ni128   1.908       .  S
O122       Ni123   1.938       .  S
Ni123       O127   1.901       .  S
Ni123       O125   1.918       .  S
O124       Ni129   1.924       .  S
C126        O127   1.267       .  A
C126       C3566   1.493       .  S
O131       Ni137   1.939       .  S
O131        C152   1.276       .  A
O132       Ni155   1.918       .  S
O132        C141   1.269       .  A
O133       Ni137   1.901       .  S
O133       Ni155   1.905       .  S
O133       Ni149   1.918       .  S
O133        H156   0.967       .  S
C134        O151   1.282       .  A
C134        O143   1.273       .  A
C134       C3379   1.487       .  S
O135       Ni154   1.910       .  S
O135        C141   1.267       .  A
O136       Ni154   1.920       .  S
O136        C138   1.270       .  A
Ni137       O140   1.940   1_556  S
Ni137       O142   1.910       .  S
C138        O148   1.270       .  A
C138       C3346   1.477       .  S
O139       Ni155   1.912   1_554  S
O139        C145   1.276       .  A
O140        C145   1.279       .  A
C141       C3336   1.479       .  S
O142        C144   1.269       .  A
O143       Ni154   1.910       .  S
C144        O150   1.275       .  A
C144       C3329   1.488       .  S
C145       C3389   1.479       .  S
H146        O147   0.965       .  S
O147       Ni155   1.918       .  S
O147       Ni149   1.891       .  S
O147       Ni154   1.902       .  S
O148       Ni149   1.923       .  S
Ni149       O153   1.901       .  S
Ni149       O151   1.935       .  S
O150       Ni155   1.937       .  S
C152        O153   1.270       .  A
C152       C3509   1.481       .  S
O157       Ni163   1.937       .  S
O157        C178   1.275       .  A
O158       Ni181   1.917       .  S
O158        C167   1.270       .  A
O159       Ni163   1.900       .  S
O159       Ni181   1.901       .  S
O159       Ni175   1.916       .  S
O159        H182   0.967       .  S
C160        O177   1.278       .  A
C160        O169   1.275       .  A
C160       C3319   1.481       .  S
O161       Ni180   1.913       .  S
O161        C167   1.269       .  A
O162       Ni180   1.909       .  S
O162        C164   1.268       .  A
Ni163       O166   1.919       .  S
Ni163       O168   1.918       .  S
C164        O174   1.271       .  A
C164       C3399   1.486       .  S
O165       Ni181   1.918       .  S
O165        C171   1.278       .  A
O166        C171   1.276       .  A
C167       C3296   1.483       .  S
O168        C170   1.273       .  A
O169       Ni180   1.918       .  S
C170        O176   1.277       .  A
C170       C3286   1.495       .  S
C171       C3309   1.481       .  S
H172        O173   0.967       .  S
O173       Ni181   1.917       .  S
O173       Ni175   1.899       .  S
O173       Ni180   1.902       .  S
O174       Ni175   1.939       .  S
Ni175       O179   1.892       .  S
Ni175       O177   1.922       .  S
O176       Ni181   1.938       .  S
C178        O179   1.266       .  A
C178       C3479   1.479       .  S
O183       Ni189   1.926       .  S
O183        C204   1.274       .  A
O184       Ni207   1.919       .  S
O184        C193   1.271       .  A
O185       Ni189   1.895       .  S
O185       Ni207   1.896       .  S
O185       Ni201   1.917       .  S
O185        H208   0.965       .  S
C186        O203   1.283       .  A
C186        O195   1.272       .  A
C186       C3306   1.478       .  S
O187       Ni206   1.899       .  S
O187        C193   1.265       .  A
O188       Ni206   1.919       .  S
O188        C190   1.269       .  A
Ni189       O192   1.919       .  S
Ni189       O194   1.909       .  S
C190        O200   1.270       .  A
C190       C3349   1.476       .  S
O191       Ni207   1.925       .  S
O191        C197   1.281       .  A
O192        C197   1.276       .  A
C193       C3279   1.479       .  S
O194        C196   1.271       .  A
O195       Ni206   1.901       .  S
C196        O202   1.271       .  A
C196       C3266   1.482       .  S
C197       C3316   1.480       .  S
H198        O199   0.966       .  S
O199       Ni207   1.916       .  S
O199       Ni201   1.886       .  S
O199       Ni206   1.889       .  S
O200       Ni201   1.926       .  S
Ni201       O205   1.897       .  S
Ni201       O203   1.937       .  S
O202       Ni207   1.921       .  S
C204        O205   1.268       .  A
C204       C3429   1.477       .  S
O209       Ni215   1.930       .  S
O209        C230   1.273       .  A
O210       Ni233   1.917       .  S
O210        C219   1.271       .  A
O211       Ni215   1.897       .  S
O211       Ni233   1.900   1_545  S
O211       Ni227   1.917       .  S
O211        H234   0.965       .  S
C212        O229   1.279   1_565  A
C212        O221   1.279       .  A
C212       C3226   1.486       .  S
O213       Ni232   1.915       .  S
O213        C219   1.269       .  A
O214       Ni232   1.899       .  S
O214        C216   1.266       .  A
Ni215       O218   1.920       .  S
Ni215       O220   1.914       .  S
C216        O226   1.273   1_565  A
C216       C3259   1.479   1_565  S
O217       Ni233   1.931       .  S
O217        C223   1.281   1_565  A
O218        C223   1.277       .  A
C219       C3369   1.480       .  S
O220        C222   1.269       .  A
O221       Ni232   1.923       .  S
C222        O228   1.270   1_545  A
C222       C3216   1.508       .  S
C223       C3239   1.487       .  S
H224        O225   0.966       .  S
O225       Ni233   1.909       .  S
O225       Ni227   1.885   1_565  S
O225       Ni232   1.890       .  S
O226       Ni227   1.943       .  S
Ni227       O231   1.902       .  S
Ni227       O229   1.917       .  S
O228       Ni233   1.925       .  S
C230        O231   1.268       .  A
C230       C3246   1.481       .  S
O235       Ni241   1.938       .  S
O235        C256   1.277   1_556  A
O236       Ni259   1.914       .  S
O236        C245   1.268       .  A
O237       Ni241   1.891       .  S
O237       Ni259   1.895   1_545  S
O237       Ni253   1.912   1_556  S
O237        H260   0.966       .  S
C238        O255   1.284   1_565  A
C238        O247   1.272       .  A
C238       C3236   1.491       .  S
O239       Ni258   1.907       .  S
O239        C245   1.263   1_554  A
O240       Ni258   1.914       .  S
O240        C242   1.268       .  A
Ni241       O244   1.931       .  S
Ni241       O246   1.902       .  S
C242        O252   1.267   1_565  A
C242       C3206   1.472   1_565  S
O243       Ni259   1.909       .  S
O243        C249   1.274   1_565  A
O244        C249   1.278       .  A
C245       C3339   1.468       .  S
O246        C248   1.270       .  A
O247       Ni258   1.906       .  S
C248        O254   1.276   1_545  A
C248       C3186   1.503   1_545  S
C249       C3229   1.489       .  S
H250        O251   0.966       .  S
O251       Ni259   1.914   1_554  S
O251       Ni253   1.893   1_565  S
O251       Ni258   1.899       .  S
O252       Ni253   1.917       .  S
Ni253       O257   1.898       .  S
Ni253       O255   1.942       .  S
O254       Ni259   1.945       .  S
C256        O257   1.270       .  A
C256       C3196   1.476       .  S
O261       Ni267   1.932       .  S
O261        C282   1.276       .  A
O262       Ni285   1.914       .  S
O262        C271   1.267       .  A
O263       Ni267   1.896       .  S
O263       Ni285   1.898   1_545  S
O263       Ni279   1.920       .  S
O263        H286   0.966       .  S
C264        O281   1.284   1_565  A
C264        O273   1.273       .  A
C264       C3156   1.484   1_554  S
O265       Ni284   1.906       .  S
O265        C271   1.266       .  A
O266       Ni284   1.913       .  S
O266        C268   1.268       .  A
Ni267       O270   1.922       .  S
Ni267       O272   1.918       .  S
C268        O278   1.270   1_565  A
C268       C3209   1.476       .  S
O269       Ni285   1.918       .  S
O269        C275   1.279   1_565  A
O270        C275   1.277       .  A
C271       C3299   1.473       .  S
O272        C274   1.273       .  A
O273       Ni284   1.908       .  S
C274        O280   1.273   1_545  A
C274       C3149   1.494       .  S
C275       C3169   1.480       .  S
H276        O277   0.966       .  S
O277       Ni285   1.916       .  S
O277       Ni279   1.895   1_565  S
O277       Ni284   1.900       .  S
O278       Ni279   1.929       .  S
Ni279       O283   1.908       .  S
Ni279       O281   1.934       .  S
O280       Ni285   1.929       .  S
C282        O283   1.271       .  A
C282       C3176   1.487       .  S
O287       Ni293   1.934       .  S
O287        C308   1.275       .  A
O288       Ni311   1.914       .  S
O288        C297   1.270       .  A
O289       Ni293   1.897       .  S
O289       Ni311   1.895   1_545  S
O289       Ni305   1.918       .  S
O289        H312   0.966       .  S
C290        O307   1.280   1_565  A
C290        O299   1.273       .  A
C290       C3166   1.484   1_565  S
O291       Ni310   1.910       .  S
O291        C297   1.267       .  A
O292       Ni310   1.907       .  S
O292        C294   1.268       .  A
Ni293       O296   1.923       .  S
Ni293       O298   1.911       .  S
C294        O304   1.268   1_565  A
C294       C3256   1.474   1_565  S
O295       Ni311   1.919       .  S
O295        C301   1.278   1_565  A
O296        C301   1.278       .  A
C297       C3276   1.476       .  S
O298        C300   1.272       .  A
O299       Ni310   1.912       .  S
C300        O306   1.276   1_545  A
C300       C3126   1.493       .  S
C301       C3159   1.481       .  S
H302        O303   0.966       .  S
O303       Ni311   1.917       .  S
O303       Ni305   1.898   1_565  S
O303       Ni310   1.902       .  S
O304       Ni305   1.925       .  S
Ni305       O309   1.891       .  S
Ni305       O307   1.928       .  S
O306       Ni311   1.934       .  S
C308        O309   1.266       .  A
C308       C3139   1.473       .  S
O313       Ni319   1.934       .  S
O313        C334   1.275       .  A
O314       Ni337   1.929       .  S
O314        C323   1.270       .  A
O315       Ni319   1.900       .  S
O315       Ni337   1.907       .  S
O315       Ni331   1.923       .  S
O315        H338   0.966       .  S
C316        O333   1.284       .  A
C316        O325   1.273       .  A
C316       C3096   1.481   1_554  S
O317       Ni336   1.900       .  S
O317        C323   1.262       .  A
O318       Ni336   1.905       .  S
O318        C320   1.267       .  A
Ni319       O322   1.928       .  S
Ni319       O324   1.912       .  S
C320        O330   1.270       .  A
C320       C3116   1.477       .  S
O321       Ni337   1.909       .  S
O321        C327   1.274       .  A
O322        C327   1.278       .  A
C323       C3539   1.496       .  S
O324        C326   1.271       .  A
O325       Ni336   1.907       .  S
C326        O332   1.279       .  A
C326       C3086   1.495       .  S
C327       C3106   1.472       .  S
H328        O329   0.967       .  S
O329       Ni337   1.920       .  S
O329       Ni331   1.899       .  S
O329       Ni336   1.902       .  S
O330       Ni331   1.930       .  S
Ni331       O335   1.906       .  S
Ni331       O333   1.937       .  S
O332       Ni337   1.941       .  S
C334        O335   1.270       .  A
C334       C3199   1.487       .  S
O339       Ni345   1.939       .  S
O339        C360   1.274       .  A
O340       Ni363   1.922       .  S
O340        C349   1.269       .  A
O341       Ni345   1.904       .  S
O341       Ni363   1.907       .  S
O341       Ni357   1.907       .  S
O341        H364   0.966       .  S
C342        O359   1.274       .  A
C342        O351   1.276       .  A
C342       C3109   1.471       .  S
O343       Ni362   1.912       .  S
O343        C349   1.264       .  A
O344       Ni362   1.890       .  S
O344        C346   1.264       .  A
Ni345       O348   1.917       .  S
Ni345       O350   1.917       .  S
C346        O356   1.272       .  A
C346       C3076   1.470       .  S
O347       Ni363   1.928       .  S
O347        C353   1.281       .  A
O348        C353   1.277       .  A
C349       C3499   1.482       .  S
O350        C352   1.272       .  A
O351       Ni362   1.919       .  S
C352        O358   1.268       .  A
C352       C3066   1.483       .  S
C353       C3099   1.481       .  S
H354        O355   0.966       .  S
O355       Ni363   1.917       .  S
O355       Ni357   1.902       .  S
O355       Ni362   1.904       .  S
O356       Ni357   1.929       .  S
Ni357       O361   1.903       .  S
Ni357       O359   1.911       .  S
O358       Ni363   1.914       .  S
C360        O361   1.267       .  A
C360       C3249   1.484       .  S
O365       Ni371   1.927       .  S
O365        C386   1.273       .  A
O366       Ni389   1.922       .  S
O366        C375   1.268       .  A
O367       Ni371   1.905       .  S
O367       Ni389   1.907       .  S
O367       Ni383   1.922       .  S
O367        H390   0.966       .  S
C368        O385   1.280       .  A
C368        O377   1.271       .  A
C368       C3046   1.479       .  S
O369       Ni388   1.902       .  S
O369        C375   1.263       .  A
O370       Ni388   1.906       .  S
O370        C372   1.267       .  A
Ni371       O374   1.918       .  S
Ni371       O376   1.907       .  S
C372        O382   1.264       .  A
C372       C3079   1.464       .  S
O373       Ni389   1.915       .  S
O373        C379   1.276       .  A
O374        C379   1.274       .  A
C375       C3449   1.481       .  S
O376        C378   1.270       .  A
O377       Ni388   1.906       .  S
C378        O384   1.276       .  A
C378       C3036   1.484       .  S
C379       C3056   1.478       .  S
H380        O381   0.966       .  S
O381       Ni389   1.919       .  S
O381       Ni383   1.901       .  S
O381       Ni388   1.911       .  S
O382       Ni383   1.911       .  S
Ni383       O387   1.895       .  S
Ni383       O385   1.930       .  S
O384       Ni389   1.931       .  S
C386        O387   1.264       .  A
C386       C3136   1.475       .  S
O391       Ni397   1.935       .  S
O391        C412   1.273   1_556  A
O392       Ni415   1.924       .  S
O392        C401   1.270       .  A
O393       Ni397   1.908       .  S
O393       Ni415   1.908       .  S
O393       Ni409   1.907   1_556  S
O393        H416   0.965       .  S
C394        O411   1.272       .  A
C394        O403   1.273       .  A
C394       C3059   1.472       .  S
O395       Ni414   1.911       .  S
O395        C401   1.267   1_554  A
O396       Ni414   1.900       .  S
O396        C398   1.268       .  A
Ni397       O400   1.913       .  S
Ni397       O402   1.914       .  S
C398        O408   1.274       .  A
C398       C3119   1.483       .  S
O399       Ni415   1.927       .  S
O399        C405   1.282       .  A
O400        C405   1.275       .  A
C401       C3419   1.480       .  S
O402        C404   1.272       .  A
O403       Ni414   1.915       .  S
C404        O410   1.269       .  A
C404       C3026   1.485       .  S
C405       C3049   1.479       .  S
H406        O407   0.967       .  S
O407       Ni415   1.919   1_554  S
O407       Ni409   1.908       .  S
O407       Ni414   1.907       .  S
O408       Ni409   1.937       .  S
Ni409       O413   1.905       .  S
Ni409       O411   1.908       .  S
O410       Ni415   1.918       .  S
C412        O413   1.265       .  A
C412       C3179   1.485       .  S
O417       Ni423   1.909       .  S
O417        C438   1.266       .  A
O418       Ni441   1.887       .  S
O418        C427   1.265       .  A
O419       Ni423   1.906       .  S
O419       Ni441   1.899       .  S
O419       Ni435   1.921       .  S
O419        H442   0.966       .  S
C420        O437   1.282       .  A
C420        O429   1.278       .  A
C420       C2999   1.477       .  S
O421       Ni440   1.941       .  S
O421        C427   1.275       .  A
O422       Ni440   1.909       .  S
O422        C424   1.271       .  A
Ni423       O426   1.916       .  S
Ni423       O428   1.907       .  S
C424        O434   1.275       .  A
C424       C2969   1.491       .  S
O425       Ni441   1.920       .  S
O425        C431   1.278       .  A
O426        C431   1.274       .  A
C427       C3006   1.473       .  S
O428        C430   1.268       .  A
O429       Ni440   1.920       .  S
C430        O436   1.268       .  A
C430       C3016   1.477       .  S
C431       C2989   1.483       .  S
H432        O433   0.966       .  S
O433       Ni441   1.912       .  S
O433       Ni435   1.898       .  S
O433       Ni440   1.899       .  S
O434       Ni435   1.933       .  S
Ni435       O439   1.924       .  S
Ni435       O437   1.929       .  S
O436       Ni441   1.926       .  S
C438        O439   1.272       .  A
C438       C2976   1.480       .  S
O443       Ni449   1.917       .  S
O443        C464   1.268       .  A
O444       Ni467   1.905       .  S
O444        C453   1.268       .  A
O445       Ni449   1.909       .  S
O445       Ni467   1.902       .  S
O445       Ni461   1.923       .  S
O445        H468   0.966       .  S
C446        O463   1.283       .  A
C446        O455   1.278       .  A
C446       C2986   1.477       .  S
O447       Ni466   1.933       .  S
O447        C453   1.273       .  A
O448       Ni466   1.911       .  S
O448        C450   1.271       .  A
Ni449       O452   1.921   1_556  S
Ni449       O454   1.907       .  S
C450        O460   1.277       .  A
C450       C2926   1.504       .  S
O451       Ni467   1.923       .  S
O451        C457   1.279   1_556  A
O452        C457   1.275       .  A
C453       C2946   1.486       .  S
O454        C456   1.268       .  A
O455       Ni466   1.916       .  S
C456        O462   1.269       .  A
C456       C2956   1.476       .  S
C457       C2996   1.481       .  S
H458        O459   0.966       .  S
O459       Ni467   1.912       .  S
O459       Ni461   1.895       .  S
O459       Ni466   1.892       .  S
O460       Ni461   1.943       .  S
Ni461       O465   1.918       .  S
Ni461       O463   1.931       .  S
O462       Ni467   1.927       .  S
C464        O465   1.271       .  A
C464       C2939   1.475       .  S
O469       Ni475   1.898   1_554  S
O469        C490   1.261       .  A
O470       Ni493   1.895       .  S
O470        C479   1.265   1_556  A
O471       Ni475   1.906   1_554  S
O471       Ni493   1.900   1_554  S
O471       Ni487   1.919       .  S
O471        H494   0.966       .  S
C472        O489   1.276       .  A
C472        O481   1.277       .  A
C472       C2909   1.476       .  S
O473       Ni492   1.944       .  S
O473        C479   1.275       .  A
O474       Ni492   1.909       .  S
O474        C476   1.270       .  A
Ni475       O478   1.911       .  S
Ni475       O480   1.894       .  S
C476        O486   1.274       .  A
C476       C3526   1.484       .  S
O477       Ni493   1.921       .  S
O477        C483   1.277       .  A
O478        C483   1.275       .  A
C479       C2919   1.478   1_554  S
O480        C482   1.264       .  A
O481       Ni492   1.924       .  S
C482        O488   1.271       .  A
C482       C2959   1.483       .  S
C483       C2896   1.478       .  S
H484        O485   0.966       .  S
O485       Ni493   1.911   1_554  S
O485       Ni487   1.911       .  S
O485       Ni492   1.908       .  S
O486       Ni487   1.930       .  S
Ni487       O491   1.931       .  S
Ni487       O489   1.911       .  S
O488       Ni493   1.933       .  S
C490        O491   1.269       .  A
C490       C2889   1.479       .  S
O495       Ni501   1.905       .  S
O495        C516   1.264       .  A
O496       Ni519   1.883       .  S
O496        C505   1.262       .  A
O497       Ni501   1.900       .  S
O497       Ni519   1.883       .  S
O497       Ni513   1.915       .  S
O497        H520   0.966       .  S
C498        O515   1.274       .  A
C498        O507   1.276       .  A
C498       C2899   1.476       .  S
O499       Ni518   1.940       .  S
O499        C505   1.274       .  A
O500       Ni518   1.914       .  S
O500        C502   1.271       .  A
Ni501       O504   1.915       .  S
Ni501       O506   1.896       .  S
C502        O512   1.272       .  A
C502       C3489   1.513       .  S
O503       Ni519   1.923       .  S
O503        C509   1.279       .  A
O504        C509   1.277       .  A
C505       C2876   1.468       .  S
O506        C508   1.265       .  A
O507       Ni518   1.927       .  S
C508        O514   1.272       .  A
C508       C3019   1.487       .  S
C509       C2906   1.482       .  S
H510        O511   0.968       .  S
O511       Ni519   1.917       .  S
O511       Ni513   1.907       .  S
O511       Ni518   1.912       .  S
O512       Ni513   1.935       .  S
Ni513       O517   1.902       .  S
Ni513       O515   1.914       .  S
O514       Ni519   1.940       .  S
C516        O517   1.264       .  A
C516       C2869   1.461       .  S
O521       Ni527   1.912   1_554  S
O521        C542   1.267       .  A
O522       Ni545   1.898       .  S
O522        C531   1.266       .  A
O523       Ni527   1.906       .  S
O523       Ni545   1.900       .  S
O523       Ni539   1.932   1_556  S
O523        H546   0.967       .  S
C524        O541   1.283       .  A
C524        O533   1.279       .  A
C524       C2846   1.485       .  S
O525       Ni544   1.926       .  S
O525        C531   1.272   1_554  A
O526       Ni544   1.906       .  S
O526        C528   1.268       .  A
Ni527       O530   1.919       .  S
Ni527       O532   1.905       .  S
C528        O538   1.277       .  A
C528       C2816   1.495       .  S
O529       Ni545   1.936       .  S
O529        C535   1.280       .  A
O530        C535   1.276       .  A
C531       C2949   1.468       .  S
O532        C534   1.269       .  A
O533       Ni544   1.924       .  S
C534        O540   1.271       .  A
C534       C2856   1.492       .  S
C535       C2836   1.484       .  S
H536        O537   0.965       .  S
O537       Ni545   1.920   1_554  S
O537       Ni539   1.896       .  S
O537       Ni544   1.896       .  S
O538       Ni539   1.939       .  S
Ni539       O543   1.923       .  S
Ni539       O541   1.929       .  S
O540       Ni545   1.937       .  S
C542        O543   1.271       .  A
C542       C2829   1.479       .  S
O547       Ni553   1.911       .  S
O547        C568   1.266       .  A
O548       Ni571   1.893       .  S
O548        C557   1.266       .  A
O549       Ni553   1.911       .  S
O549       Ni571   1.896       .  S
O549       Ni565   1.916       .  S
O549        H572   0.965       .  S
C550        O567   1.274       .  A
C550        O559   1.274       .  A
C550       C2839   1.476       .  S
O551       Ni570   1.933       .  S
O551        C557   1.271       .  A
O552       Ni570   1.903       .  S
O552        C554   1.268       .  A
Ni553       O556   1.913       .  S
Ni553       O558   1.901       .  S
C554        O564   1.276       .  A
C554       C2786   1.485       .  S
O555       Ni571   1.921       .  S
O555        C561   1.276       .  A
O556        C561   1.273       .  A
C557       C3009   1.479       .  S
O558        C560   1.266       .  A
O559       Ni570   1.924       .  S
C560        O566   1.276       .  A
C560       C2806   1.491       .  S
C561       C2849   1.480       .  S
H562        O563   0.965       .  S
O563       Ni571   1.922       .  S
O563       Ni565   1.917       .  S
O563       Ni570   1.918       .  S
O564       Ni565   1.934       .  S
Ni565       O569   1.914       .  S
Ni565       O567   1.920       .  S
O566       Ni571   1.946       .  S
C568        O569   1.268       .  A
C568       C2796   1.472       .  S
O573       Ni579   1.896       .  S
O573        C594   1.266       .  A
O574       Ni597   1.890       .  S
O574        C583   1.264       .  A
O575       Ni579   1.920       .  S
O575       Ni597   1.901       .  S
O575       Ni591   1.934       .  S
O575        H598   0.967       .  S
C576        O593   1.278       .  A
C576        O585   1.272       .  A
C576       C2776   1.482       .  S
O577       Ni596   1.928       .  S
O577        C583   1.270       .  A
O578       Ni596   1.910       .  S
O578        C580   1.271       .  A
Ni579       O582   1.923       .  S
Ni579       O584   1.903       .  S
C580        O590   1.278       .  A
C580       C3089   1.493       .  S
O581       Ni597   1.925       .  S
O581        C587   1.270       .  A
O582        C587   1.266       .  A
C583       C2879   1.478       .  S
O584        C586   1.270       .  A
O585       Ni596   1.913       .  S
C586        O592   1.280       .  A
C586       C2809   1.492       .  S
C587       C2766   1.491       .  S
H588        O589   0.966       .  S
O589       Ni597   1.914       .  S
O589       Ni591   1.909       .  S
O589       Ni596   1.919       .  S
O590       Ni591   1.940       .  S
Ni591       O595   1.920       .  S
Ni591       O593   1.925       .  S
O592       Ni597   1.963       .  S
C594        O595   1.273       .  A
C594       C2759   1.471       .  S
O599       Ni605   1.896       .  S
O599        C620   1.263       .  A
O600       Ni623   1.897       .  S
O600        C609   1.266       .  A
O601       Ni605   1.922       .  S
O601       Ni623   1.919       .  S
O601       Ni617   1.940       .  S
O601        H624   0.967       .  S
C602        O619   1.276       .  A
C602        O611   1.273       .  A
C602       C2769   1.502       .  S
O603       Ni622   1.945       .  S
O603        C609   1.275       .  A
O604       Ni622   1.908       .  S
O604        C606   1.271       .  A
Ni605       O608   1.917       .  S
Ni605       O610   1.901       .  S
C606        O616   1.274       .  A
C606       C3069   1.497       .  S
O607       Ni623   1.916       .  S
O607        C613   1.268   1_556  A
O608        C613   1.264   1_556  A
C609       C2916   1.489       .  S
O610        C612   1.269       .  A
O611       Ni622   1.924       .  S
C612        O618   1.280       .  A
C612       C2859   1.488       .  S
C613       C2779   1.474       .  S
H614        O615   0.966       .  S
O615       Ni623   1.904       .  S
O615       Ni617   1.907       .  S
O615       Ni622   1.918       .  S
O616       Ni617   1.939       .  S
Ni617       O621   1.923       .  S
Ni617       O619   1.928       .  S
O618       Ni623   1.957       .  S
C620        O621   1.271       .  A
C620       C2746   1.468       .  S
O625       Ni631   1.913       .  S
O625        C646   1.267       .  A
O626       Ni649   1.895       .  S
O626        C635   1.264       .  A
O627       Ni631   1.918       .  S
O627       Ni649   1.910       .  S
O627       Ni643   1.926       .  S
O627        H650   0.965       .  S
C628        O645   1.278       .  A
C628        O637   1.276       .  A
C628       C2706   1.477       .  S
O629       Ni648   1.936       .  S
O629        C635   1.273       .  A
O630       Ni648   1.911       .  S
O630        C632   1.270       .  A
Ni631       O634   1.917       .  S
Ni631       O636   1.908       .  S
C632        O642   1.276       .  A
C632       C2699   1.491       .  S
O633       Ni649   1.923       .  S
O633        C639   1.275       .  A
O634        C639   1.272       .  A
C635       C2729   1.475       .  S
O636        C638   1.269       .  A
O637       Ni648   1.920       .  S
C638        O644   1.272       .  A
C638       C2739   1.487       .  S
C639       C2716   1.484       .  S
H640        O641   0.964       .  S
O641       Ni649   1.912       .  S
O641       Ni643   1.904       .  S
O641       Ni648   1.911       .  S
O642       Ni643   1.934       .  S
Ni643       O647   1.921       .  S
Ni643       O645   1.918       .  S
O644       Ni649   1.932       .  S
C646        O647   1.270       .  A
C646       C2979   1.484       .  S
O651       Ni657   1.904       .  S
O651        C672   1.265       .  A
O652       Ni675   1.901       .  S
O652        C661   1.265       .  A
O653       Ni657   1.921       .  S
O653       Ni675   1.918       .  S
O653       Ni669   1.927       .  S
O653        H676   0.967       .  S
C654        O671   1.275       .  A
C654        O663   1.274       .  A
C654       C2719   1.479       .  S
O655       Ni674   1.933       .  S
O655        C661   1.271       .  A
O656       Ni674   1.911       .  S
O656        C658   1.271       .  A
Ni657       O660   1.905       .  S
Ni657       O662   1.902       .  S
C658        O668   1.275       .  A
C658       C2666   1.488       .  S
O659       Ni675   1.918       .  S
O659        C665   1.271       .  A
O660        C665   1.266       .  A
C661       C2676   1.481       .  S
O662        C664   1.269       .  A
O663       Ni674   1.921       .  S
C664        O670   1.274       .  A
C664       C2689   1.481       .  S
C665       C2709   1.473       .  S
H666        O667   0.966       .  S
O667       Ni675   1.912       .  S
O667       Ni669   1.910       .  S
O667       Ni674   1.917       .  S
O668       Ni669   1.934       .  S
Ni669       O673   1.916       .  S
Ni669       O671   1.919       .  S
O670       Ni675   1.940       .  S
C672        O673   1.268       .  A
C672       C2936   1.477       .  S
O677       Ni683   1.899       .  S
O677        C698   1.264       .  A
O678       Ni701   1.909       .  S
O678        C687   1.268       .  A
O679       Ni683   1.895       .  S
O679       Ni701   1.893       .  S
O679       Ni695   1.919       .  S
O679        H702   0.966       .  S
C680        O697   1.279       .  A
C680        O689   1.279       .  A
C680       C2636   1.484       .  S
O681       Ni700   1.928       .  S
O681        C687   1.271       .  A
O682       Ni700   1.900       .  S
O682        C684   1.266       .  A
Ni683       O686   1.907       .  S
Ni683       O688   1.908       .  S
C684        O694   1.279       .  A
C684       C3326   1.501       .  S
O685       Ni701   1.934       .  S
O685        C691   1.285       .  A
O686        C691   1.276       .  A
C687       C2656   1.483       .  S
O688        C690   1.267       .  A
O689       Ni700   1.929   1_556  S
C690        O696   1.268       .  A
C690       C2736   1.479       .  S
C691       C2649   1.475       .  S
H692        O693   0.966       .  S
O693       Ni701   1.922       .  S
O693       Ni695   1.905       .  S
O693       Ni700   1.894       .  S
O694       Ni695   1.942       .  S
Ni695       O699   1.936       .  S
Ni695       O697   1.922   1_554  S
O696       Ni701   1.927       .  S
C698        O699   1.274       .  A
C698       C2886   1.489       .  S
O703       Ni709   1.904       .  S
O703        C724   1.262       .  A
O704       Ni727   1.899       .  S
O704        C713   1.268       .  A
O705       Ni709   1.900       .  S
O705       Ni727   1.893       .  S
O705       Ni721   1.917       .  S
O705        H728   0.967       .  S
C706        O723   1.280       .  A
C706        O715   1.277       .  A
C706       C2646   1.480       .  S
O707       Ni726   1.940       .  S
O707        C713   1.275       .  A
O708       Ni726   1.915       .  S
O708        C710   1.272       .  A
Ni709       O712   1.914       .  S
Ni709       O714   1.896       .  S
C710        O720   1.270       .  A
C710       C3359   1.484       .  S
O711       Ni727   1.921       .  S
O711        C717   1.278       .  A
O712        C717   1.276       .  A
C713       C2626   1.487       .  S
O714        C716   1.265       .  A
O715       Ni726   1.919       .  S
C716        O722   1.270       .  A
C716       C2686   1.471       .  S
C717       C2639   1.477       .  S
H718        O719   0.966       .  S
O719       Ni727   1.911       .  S
O719       Ni721   1.904       .  S
O719       Ni726   1.897       .  S
O720       Ni721   1.922       .  S
Ni721       O725   1.915       .  S
Ni721       O723   1.924       .  S
O722       Ni727   1.928       .  S
C724        O725   1.268       .  A
C724       C2866   1.473       .  S
O729       Ni735   1.906       .  S
O729        C750   1.262       .  A
O730       Ni753   1.899       .  S
O730        C739   1.265       .  A
O731       Ni735   1.908       .  S
O731       Ni753   1.896   1_545  S
O731       Ni747   1.913       .  S
O731        H754   0.965       .  S
C732        O749   1.277   1_565  A
C732        O741   1.275       .  A
C732       C2599   1.476   1_565  S
O733       Ni752   1.933       .  S
O733        C739   1.272       .  A
O734       Ni752   1.906       .  S
O734        C736   1.270       .  A
Ni735       O738   1.911       .  S
Ni735       O740   1.895       .  S
C736        O746   1.278   1_565  A
C736       C2586   1.489       .  S
O737       Ni753   1.923       .  S
O737        C743   1.279   1_565  A
O738        C743   1.275       .  A
C739       C2726   1.482       .  S
O740        C742   1.264       .  A
O741       Ni752   1.918   1_556  S
C742        O748   1.270   1_545  A
C742       C2616   1.480       .  S
C743       C2609   1.474       .  S
H744        O745   0.965       .  S
O745       Ni753   1.919       .  S
O745       Ni747   1.916   1_565  S
O745       Ni752   1.907       .  S
O746       Ni747   1.937       .  S
Ni747       O751   1.928       .  S
Ni747       O749   1.918   1_554  S
O748       Ni753   1.931       .  S
C750        O751   1.272       .  A
C750       C2826   1.485       .  S
O755       Ni761   1.908       .  S
O755        C776   1.265       .  A
O756       Ni779   1.896       .  S
O756        C765   1.267       .  A
O757       Ni761   1.910       .  S
O757       Ni779   1.894   1_545  S
O757       Ni773   1.919       .  S
O757        H780   0.966       .  S
C758        O775   1.276   1_565  A
C758        O767   1.277       .  A
C758       C2606   1.473       .  S
O759       Ni778   1.933       .  S
O759        C765   1.273       .  A
O760       Ni778   1.902       .  S
O760        C762   1.267       .  A
Ni761       O764   1.916       .  S
Ni761       O766   1.905       .  S
C762        O772   1.280   1_565  A
C762       C2566   1.493       .  S
O763       Ni779   1.921       .  S
O763        C769   1.277   1_565  A
O764        C769   1.276       .  A
C765       C2679   1.476       .  S
O766        C768   1.266       .  A
O767       Ni778   1.925       .  S
C768        O774   1.275   1_545  A
C768       C2579   1.488       .  S
C769       C2596   1.480       .  S
H770        O771   0.966       .  S
O771       Ni779   1.913       .  S
O771       Ni773   1.904   1_565  S
O771       Ni778   1.903       .  S
O772       Ni773   1.947       .  S
Ni773       O777   1.918       .  S
Ni773       O775   1.911       .  S
O774       Ni779   1.943       .  S
C776        O777   1.271       .  A
C776       C2799   1.477       .  S
O781       Ni787   1.902       .  S
O781        C802   1.263       .  A
O782       Ni805   1.906       .  S
O782        C791   1.267       .  A
O783       Ni787   1.912       .  S
O783       Ni805   1.905   1_545  S
O783       Ni799   1.925       .  S
O783        H806   0.967       .  S
C784        O801   1.281   1_565  A
C784        O793   1.278       .  A
C784       C2546   1.480       .  S
O785       Ni804   1.933       .  S
O785        C791   1.273       .  A
O786       Ni804   1.905       .  S
O786        C788   1.267       .  A
Ni787       O790   1.907       .  S
Ni787       O792   1.912       .  S
C788        O798   1.277   1_565  A
C788       C3219   1.496       .  S
O789       Ni805   1.935       .  S
O789        C795   1.282   1_565  A
O790        C795   1.273       .  A
C791       C2659   1.482       .  S
O792        C794   1.267       .  A
O793       Ni804   1.930       .  S
C794        O800   1.263   1_545  A
C794       C2619   1.468       .  S
C795       C2556   1.482       .  S
H796        O797   0.966       .  S
O797       Ni805   1.915       .  S
O797       Ni799   1.910   1_565  S
O797       Ni804   1.896       .  S
O798       Ni799   1.940       .  S
Ni799       O803   1.940       .  S
Ni799       O801   1.919       .  S
O800       Ni805   1.911       .  S
C802        O803   1.273       .  A
C802       C2756   1.486       .  S
O807       Ni813   1.908       .  S
O807        C828   1.267       .  A
O808       Ni831   1.895       .  S
O808        C817   1.265       .  A
O809       Ni813   1.909       .  S
O809       Ni831   1.902   1_545  S
O809       Ni825   1.920       .  S
O809        H832   0.966       .  S
C810        O827   1.280   1_565  A
C810        O819   1.278       .  A
C810       C2559   1.487   1_565  S
O811       Ni830   1.947       .  S
O811        C817   1.276       .  A
O812       Ni830   1.914       .  S
O812        C814   1.272       .  A
Ni813       O816   1.917       .  S
Ni813       O818   1.901       .  S
C814        O824   1.276   1_565  A
C814       C3189   1.492       .  S
O815       Ni831   1.920       .  S
O815        C821   1.274   1_565  A
O816        C821   1.274       .  A
C817       C2629   1.484       .  S
O818        C820   1.265       .  A
O819       Ni830   1.926       .  S
C820        O826   1.274   1_545  A
C820       C2576   1.482       .  S
C821       C2549   1.487   1_545  S
H822        O823   0.966       .  S
O823       Ni831   1.913       .  S
O823       Ni825   1.905   1_565  S
O823       Ni830   1.903       .  S
O824       Ni825   1.935       .  S
Ni825       O829   1.922       .  S
Ni825       O827   1.924       .  S
O826       Ni831   1.946       .  S
C828        O829   1.272       .  A
C828       C2749   1.478       .  S
O833       Ni839   1.935       .  S
O833        C854   1.272       .  A
O834       Ni857   1.915       .  S
O834        C843   1.269       .  A
O835       Ni839   1.911       .  S
O835       Ni857   1.905   1_545  S
O835       Ni851   1.911       .  S
O835        H858   0.967       .  S
C836        O853   1.272   1_565  A
C836        O845   1.274       .  A
C836       C2519   1.494       .  S
O837       Ni856   1.914       .  S
O837        C843   1.265       .  A
O838       Ni856   1.884       .  S
O838        C840   1.263       .  A
Ni839       O842   1.914       .  S
Ni839       O844   1.914       .  S
C840        O850   1.277   1_565  A
C840       C2536   1.483   1_565  S
O841       Ni857   1.927       .  S
O841        C847   1.280   1_565  A
O842        C847   1.276       .  A
C843       C2496   1.474       .  S
O844        C846   1.271       .  A
O845       Ni856   1.923       .  S
C846        O852   1.271   1_545  A
C846       C2489   1.487       .  S
C847       C2506   1.474       .  S
H848        O849   0.966       .  S
O849       Ni857   1.915       .  S
O849       Ni851   1.897   1_565  S
O849       Ni856   1.907       .  S
O850       Ni851   1.957       .  S
Ni851       O855   1.896       .  S
Ni851       O853   1.911       .  S
O852       Ni857   1.925       .  S
C854        O855   1.266       .  A
C854       C2526   1.486       .  S
O859       Ni865   1.941       .  S
O859        C880   1.276       .  A
O860       Ni883   1.932       .  S
O860        C869   1.274       .  A
O861       Ni865   1.894       .  S
O861       Ni883   1.899   1_545  S
O861       Ni877   1.907       .  S
O861        H884   0.966       .  S
C862        O879   1.276   1_565  A
C862        O871   1.272       .  A
C862       C2509   1.478   1_565  S
O863       Ni882   1.904       .  S
O863        C869   1.263       .  A
O864       Ni882   1.900       .  S
O864        C866   1.266       .  A
Ni865       O868   1.917       .  S
Ni865       O870   1.907       .  S
C866        O876   1.269   1_565  A
C866       C2479   1.476   1_565  S
O867       Ni883   1.922       .  S
O867        C873   1.279   1_565  A
O868        C873   1.276       .  A
C869       C2456   1.487       .  S
O870        C872   1.271       .  A
O871       Ni882   1.913       .  S
C872        O878   1.280   1_545  A
C872       C2446   1.500       .  S
C873       C2516   1.505       .  S
H874        O875   0.966       .  S
O875       Ni883   1.924       .  S
O875       Ni877   1.907   1_565  S
O875       Ni882   1.914       .  S
O876       Ni877   1.930       .  S
Ni877       O881   1.893       .  S
Ni877       O879   1.918       .  S
O878       Ni883   1.948       .  S
C880        O881   1.266       .  A
C880       C2466   1.482       .  S
O885       Ni891   1.942       .  S
O885        C906   1.274       .  A
O886       Ni909   1.928       .  S
O886        C895   1.273       .  A
O887       Ni891   1.910       .  S
O887       Ni909   1.913   1_545  S
O887       Ni903   1.914       .  S
O887        H910   0.965       .  S
C888        O905   1.275   1_565  A
C888        O897   1.274       .  A
C888       C2429   1.477   1_565  S
O889       Ni908   1.908       .  S
O889        C895   1.264       .  A
O890       Ni908   1.902       .  S
O890        C892   1.266       .  A
Ni891       O894   1.923       .  S
Ni891       O896   1.905       .  S
C892        O902   1.271   1_565  A
C892       C2539   1.487       .  S
O893       Ni909   1.919       .  S
O893        C899   1.277   1_565  A
O894        C899   1.276       .  A
C895       C2409   1.484       .  S
O896        C898   1.270       .  A
O897       Ni908   1.912       .  S
C898        O904   1.279   1_545  A
C898       C2569   1.491       .  S
C899       C2416   1.478       .  S
H900        O901   0.968       .  S
O901       Ni909   1.920       .  S
O901       Ni903   1.900   1_565  S
O901       Ni908   1.912       .  S
O902       Ni903   1.932       .  S
Ni903       O907   1.886       .  S
Ni903       O905   1.921       .  S
O904       Ni909   1.945       .  S
C906        O907   1.262       .  A
C906       C2439   1.474       .  S
O911       Ni917   1.937       .  S
O911        C932   1.273       .  A
O912       Ni935   1.923       .  S
O912        C921   1.271       .  A
O913       Ni917   1.908       .  S
O913       Ni935   1.906   1_545  S
O913       Ni929   1.914       .  S
O913        H936   0.968       .  S
C914        O931   1.277   1_565  A
C914        O923   1.273       .  A
C914       C2419   1.479       .  S
O915       Ni934   1.907       .  S
O915        C921   1.264       .  A
O916       Ni934   1.903       .  S
O916        C918   1.267       .  A
Ni917       O920   1.919   1_556  S
Ni917       O922   1.908       .  S
C918        O928   1.270   1_565  A
C918       C2476   1.486       .  S
O919       Ni935   1.919   1_554  S
O919        C925   1.277   1_565  A
O920        C925   1.275       .  A
C921       C2386   1.479       .  S
O922        C924   1.271       .  A
O923       Ni934   1.914       .  S
C924        O930   1.277   1_545  A
C924       C2589   1.488       .  S
C925       C2426   1.476       .  S
H926        O927   0.967       .  S
O927       Ni935   1.921       .  S
O927       Ni929   1.902   1_565  S
O927       Ni934   1.913       .  S
O928       Ni929   1.928       .  S
Ni929       O933   1.895       .  S
Ni929       O931   1.921       .  S
O930       Ni935   1.934       .  S
C932        O933   1.264       .  A
C932       C2396   1.478       .  S
O937       Ni943   1.935       .  S
O937        C958   1.272       .  A
O938       Ni961   1.935       .  S
O938        C947   1.273       .  A
O939       Ni943   1.911       .  S
O939       Ni961   1.914       .  S
O939       Ni955   1.914       .  S
O939        H962   0.965       .  S
C940        O957   1.277       .  A
C940        O949   1.274       .  A
C940       C2366   1.479       .  S
O941       Ni960   1.903       .  S
O941        C947   1.263       .  A
O942       Ni960   1.903       .  S
O942        C944   1.266       .  A
Ni943       O946   1.918       .  S
Ni943       O948   1.911       .  S
C944        O954   1.272       .  A
C944       C2376   1.488       .  S
O945       Ni961   1.915       .  S
O945        C951   1.277       .  A
O946        C951   1.275       .  A
C947       C2346   1.492       .  S
O948        C950   1.271       .  A
O949       Ni960   1.911       .  S
C950        O956   1.278       .  A
C950       C2819   1.492       .  S
C951       C2356   1.471       .  S
H952        O953   0.967       .  S
O953       Ni961   1.919       .  S
O953       Ni955   1.899       .  S
O953       Ni960   1.909       .  S
O954       Ni955   1.936       .  S
Ni955       O959   1.892       .  S
Ni955       O957   1.921       .  S
O956       Ni961   1.940       .  S
C958        O959   1.264       .  A
C958       C2436   1.480       .  S
O963       Ni969   1.931       .  S
O963        C984   1.271       .  A
O964       Ni987   1.934       .  S
O964        C973   1.273       .  A
O965       Ni969   1.913       .  S
O965       Ni987   1.918       .  S
O965       Ni981   1.917       .  S
O965        H988   0.953       .  S
C966        O983   1.276       .  A
C966        O975   1.275       .  A
C966       C2359   1.474       .  S
O967       Ni986   1.908       .  S
O967        C973   1.264       .  A
O968       Ni986   1.901       .  S
O968        C970   1.267       .  A
Ni969       O972   1.915       .  S
Ni969       O974   1.906       .  S
C970        O980   1.273       .  A
C970       C2336   1.486       .  S
O971       Ni987   1.924       .  S
O971        C977   1.280       .  A
O972        C977   1.274       .  A
C973       C2326   1.487       .  S
O974        C976   1.269       .  A
O975       Ni986   1.913       .  S
C976        O982   1.274       .  A
C976       C2789   1.484       .  S
C977       C2369   1.478       .  S
H978        O979   0.972       .  S
O979       Ni987   1.920       .  S
O979       Ni981   1.898       .  S
O979       Ni986   1.908       .  S
O980       Ni981   1.935       .  S
Ni981       O985   1.899       .  S
Ni981       O983   1.917       .  S
O982       Ni987   1.929       .  S
C984        O985   1.265       .  A
C984       C2399   1.481       .  S
O989       Ni995   1.936       .  S
O989       C1010   1.275       .  A
O990      Ni1013   1.918       .  S
O990        C999   1.269       .  A
O991       Ni995   1.898       .  S
O991      Ni1013   1.900       .  S
O991      Ni1007   1.916       .  S
O991       H1014   0.967       .  S
C992       O1009   1.280       .  A
C992       O1001   1.274       .  A
C992       C2316   1.480       .  S
O993      Ni1012   1.907       .  S
O993        C999   1.265       .  A
O994      Ni1012   1.908       .  S
O994        C996   1.268       .  A
Ni995       O998   1.920       .  S
Ni995      O1000   1.911       .  S
C996       O1006   1.272       .  A
C996       C2379   1.479       .  S
O997      Ni1013   1.922       .  S
O997       C1003   1.280       .  A
O998       C1003   1.277       .  A
C999       C2296   1.475       .  S
O1000      C1002   1.271       .  A
O1001     Ni1012   1.909       .  S
C1002      O1008   1.273       .  A
C1002      C2286   1.492       .  S
C1003      C2306   1.475       .  S
H1004      O1005   0.967       .  S
O1005     Ni1013   1.918       .  S
O1005     Ni1007   1.895       .  S
O1005     Ni1012   1.897       .  S
O1006     Ni1007   1.933       .  S
Ni1007     O1011   1.899       .  S
Ni1007     O1009   1.925       .  S
O1008     Ni1013   1.930       .  S
C1010      O1011   1.269       .  A
C1010      C2529   1.479       .  S
O1015     Ni1021   1.935       .  S
O1015      C1036   1.274       .  A
O1016     Ni1039   1.920       .  S
O1016      C1025   1.270       .  A
O1017     Ni1021   1.897       .  S
O1017     Ni1039   1.902       .  S
O1017     Ni1033   1.913       .  S
O1017      H1040   0.966       .  S
C1018      O1035   1.279       .  A
C1018      O1027   1.274       .  A
C1018      C2309   1.477       .  S
O1019     Ni1038   1.904       .  S
O1019      C1025   1.265       .  A
O1020     Ni1038   1.907       .  S
O1020      C1022   1.268       .  A
Ni1021     O1024   1.917   1_556  S
Ni1021     O1026   1.915       .  S
C1022      O1032   1.268       .  A
C1022      C2339   1.476       .  S
O1023     Ni1039   1.922   1_554  S
O1023      C1029   1.280       .  A
O1024      C1029   1.276       .  A
C1025      C2276   1.481       .  S
O1026      C1028   1.272       .  A
O1027     Ni1038   1.911       .  S
C1028      O1034   1.274       .  A
C1028      C2266   1.486       .  S
C1029      C2319   1.480       .  S
H1030      O1031   0.967       .  S
O1031     Ni1039   1.919       .  S
O1031     Ni1033   1.898       .  S
O1031     Ni1038   1.901       .  S
O1032     Ni1033   1.926       .  S
Ni1033     O1037   1.893       .  S
Ni1033     O1035   1.923       .  S
O1034     Ni1039   1.928       .  S
C1036      O1037   1.266       .  A
C1036      C2469   1.478       .  S
O1041     Ni1047   1.940       .  S
O1041      C1062   1.274       .  A
O1042     Ni1065   1.926       .  S
O1042      C1051   1.271       .  A
O1043     Ni1047   1.907       .  S
O1043     Ni1065   1.912       .  S
O1043     Ni1059   1.913       .  S
O1043      H1066   0.966       .  S
C1044      O1061   1.275       .  A
C1044      O1053   1.275       .  A
C1044      C2226   1.482       .  S
O1045     Ni1064   1.913       .  S
O1045      C1051   1.264       .  A
O1046     Ni1064   1.894       .  S
O1046      C1048   1.265       .  A
Ni1047     O1050   1.922       .  S
Ni1047     O1052   1.910       .  S
C1048      O1058   1.272       .  A
C1048      C2256   1.479       .  S
O1049     Ni1065   1.918       .  S
O1049      C1055   1.278       .  A
O1050      C1055   1.276       .  A
C1051      C2406   1.484       .  S
O1052      C1054   1.271       .  A
O1053     Ni1064   1.918       .  S
C1054      O1060   1.278       .  A
C1054      C2696   1.493       .  S
C1055      C2236   1.480       .  S
H1056      O1057   0.967       .  S
O1057     Ni1065   1.921       .  S
O1057     Ni1059   1.908       .  S
O1057     Ni1064   1.913       .  S
O1058     Ni1059   1.936       .  S
Ni1059     O1063   1.904       .  S
Ni1059     O1061   1.920       .  S
O1060     Ni1065   1.943       .  S
C1062      O1063   1.266       .  A
C1062      C2249   1.482       .  S
O1067     Ni1073   1.941       .  S
O1067      C1088   1.274   1_556  A
O1068     Ni1091   1.914       .  S
O1068      C1077   1.269       .  A
O1069     Ni1073   1.914       .  S
O1069     Ni1091   1.914       .  S
O1069     Ni1085   1.914   1_556  S
O1069      H1092   0.966       .  S
C1070      O1087   1.275       .  A
C1070      O1079   1.274       .  A
C1070      C2239   1.484       .  S
O1071     Ni1090   1.918       .  S
O1071      C1077   1.268   1_554  A
O1072     Ni1090   1.910       .  S
O1072      C1074   1.267       .  A
Ni1073     O1076   1.923       .  S
Ni1073     O1078   1.914       .  S
C1074      O1084   1.271       .  A
C1074      C2216   1.482       .  S
O1075     Ni1091   1.917       .  S
O1075      C1081   1.275       .  A
O1076      C1081   1.274       .  A
C1077      C2389   1.476       .  S
O1078      C1080   1.272       .  A
O1079     Ni1090   1.915       .  S
C1080      O1086   1.277       .  A
C1080      C2669   1.491       .  S
C1081      C2229   1.478       .  S
H1082      O1083   0.966       .  S
O1083     Ni1091   1.916   1_554  S
O1083     Ni1085   1.899       .  S
O1083     Ni1090   1.919       .  S
O1084     Ni1085   1.935       .  S
Ni1085     O1089   1.890       .  S
Ni1085     O1087   1.919       .  S
O1086     Ni1091   1.942       .  S
C1088      O1089   1.263       .  A
C1088      C2206   1.482       .  S
O1093     Ni1099   1.923       .  S
O1093      C1114   1.269       .  A
O1094     Ni1117   1.917       .  S
O1094      C1103   1.270       .  A
O1095     Ni1099   1.901       .  S
O1095     Ni1117   1.898       .  S
O1095     Ni1111   1.912       .  S
O1095      H1118   0.966       .  S
C1096      O1113   1.274   1_556  A
C1096      O1105   1.277   1_556  A
C1096      C2176   1.483       .  S
O1097     Ni1116   1.913       .  S
O1097      C1103   1.266       .  A
O1098     Ni1116   1.893       .  S
O1098      C1100   1.264       .  A
Ni1099     O1102   1.914       .  S
Ni1099     O1104   1.911       .  S
C1100      O1110   1.277       .  A
C1100      C2219   1.479       .  S
O1101     Ni1117   1.929       .  S
O1101      C1107   1.283       .  A
O1102      C1107   1.277       .  A
C1103      C2499   1.476       .  S
O1104      C1106   1.268       .  A
O1105     Ni1116   1.922       .  S
C1106      O1112   1.273       .  A
C1106      C2166   1.485       .  S
C1107      C2189   1.477       .  S
H1108      O1109   0.967       .  S
O1109     Ni1117   1.917       .  S
O1109     Ni1111   1.899       .  S
O1109     Ni1116   1.904       .  S
O1110     Ni1111   1.952       .  S
Ni1111     O1115   1.903       .  S
Ni1111     O1113   1.912       .  S
O1112     Ni1117   1.931       .  S
C1114      O1115   1.267       .  A
C1114      C2199   1.467       .  S
O1119     Ni1125   1.933       .  S
O1119      C1140   1.273       .  A
O1120     Ni1143   1.916       .  S
O1120      C1129   1.267       .  A
O1121     Ni1125   1.899       .  S
O1121     Ni1143   1.894       .  S
O1121     Ni1137   1.912       .  S
O1121      H1144   0.967       .  S
C1122      O1139   1.282       .  A
C1122      O1131   1.273       .  A
C1122      C2186   1.482       .  S
O1123     Ni1142   1.915       .  S
O1123      C1129   1.267       .  A
O1124     Ni1142   1.906       .  S
O1124      C1126   1.268       .  A
Ni1125     O1128   1.924       .  S
Ni1125     O1130   1.906       .  S
C1126      O1136   1.268       .  A
C1126      C2259   1.472       .  S
O1127     Ni1143   1.916       .  S
O1127      C1133   1.276       .  A
O1128      C1133   1.279       .  A
C1129      C2459   1.478       .  S
O1130      C1132   1.269       .  A
O1131     Ni1142   1.910       .  S
C1132      O1138   1.274       .  A
C1132      C2146   1.493       .  S
C1133      C2179   1.496       .  S
H1134      O1135   0.967       .  S
O1135     Ni1143   1.913       .  S
O1135     Ni1137   1.905       .  S
O1135     Ni1142   1.905       .  S
O1136     Ni1137   1.924       .  S
Ni1137     O1141   1.907       .  S
Ni1137     O1139   1.928       .  S
O1138     Ni1143   1.935       .  S
C1140      O1141   1.270       .  A
C1140      C2156   1.486       .  S
O1145     Ni1151   1.945       .  S
O1145      C1166   1.276       .  A
O1146     Ni1169   1.933       .  S
O1146      C1155   1.273       .  A
O1147     Ni1151   1.902       .  S
O1147     Ni1169   1.903       .  S
O1147     Ni1163   1.902       .  S
O1147      H1170   0.962       .  S
C1148      O1165   1.271       .  A
C1148      O1157   1.274       .  A
C1148      C2116   1.467   1_554  S
O1149     Ni1168   1.913       .  S
O1149      C1155   1.268       .  A
O1150     Ni1168   1.899       .  S
O1150      C1152   1.266       .  A
Ni1151     O1154   1.919       .  S
Ni1151     O1156   1.918       .  S
C1152      O1162   1.272       .  A
C1152      C2136   1.481       .  S
O1153     Ni1169   1.934       .  S
O1153      C1159   1.284       .  A
O1154      C1159   1.278       .  A
C1155      C2349   1.483       .  S
O1156      C1158   1.272       .  A
O1157     Ni1168   1.924       .  S
C1158      O1164   1.274       .  A
C1158      C2966   1.492       .  S
C1159      C2126   1.485       .  S
H1160      O1161   0.970       .  S
O1161     Ni1169   1.922       .  S
O1161     Ni1163   1.907       .  S
O1161     Ni1168   1.906       .  S
O1162     Ni1163   1.931       .  S
Ni1163     O1167   1.896       .  S
Ni1163     O1165   1.909       .  S
O1164     Ni1169   1.929       .  S
C1166      O1167   1.264       .  A
C1166      C2209   1.482       .  S
O1171     Ni1177   1.942       .  S
O1171      C1192   1.278       .  A
O1172     Ni1195   1.932       .  S
O1172      C1181   1.273       .  A
O1173     Ni1177   1.893       .  S
O1173     Ni1195   1.897       .  S
O1173     Ni1189   1.910       .  S
O1173      H1196   0.966       .  S
C1174      O1191   1.281       .  A
C1174      O1183   1.275       .  A
C1174      C2129   1.483       .  S
O1175     Ni1194   1.910       .  S
O1175      C1181   1.265       .  A
O1176     Ni1194   1.904       .  S
O1176      C1178   1.268       .  A
Ni1177     O1180   1.921       .  S
Ni1177     O1182   1.926       .  S
C1178      O1188   1.277       .  A
C1178      C2109   1.499       .  S
O1179     Ni1195   1.941       .  S
O1179      C1185   1.287       .  A
O1180      C1185   1.279       .  A
C1181      C2329   1.488       .  S
O1182      C1184   1.274       .  A
O1183     Ni1194   1.914       .  S
C1184      O1190   1.273       .  A
C1184      C2929   1.513       .  S
C1185      C2119   1.476       .  S
H1186      O1187   0.966       .  S
O1187     Ni1195   1.929       .  S
O1187     Ni1189   1.899       .  S
O1187     Ni1194   1.897       .  S
O1188     Ni1189   1.951       .  S
Ni1189     O1193   1.913       .  S
Ni1189     O1191   1.933       .  S
O1190     Ni1195   1.938       .  S
C1192      O1193   1.272       .  A
C1192      C2246   1.501       .  S
O1197     Ni1203   1.933       .  S
O1197      C1218   1.271       .  A
O1198     Ni1221   1.920       .  S
O1198      C1207   1.271       .  A
O1199     Ni1203   1.905       .  S
O1199     Ni1221   1.897       .  S
O1199     Ni1215   1.903       .  S
O1199      H1222   0.966       .  S
C1200      O1217   1.266       .  A
C1200      O1209   1.269       .  A
C1200      C2086   1.481       .  S
O1201     Ni1220   1.895       .  S
O1201      C1207   1.266       .  A
O1202     Ni1220   1.903       .  S
O1202      C1204   1.267       .  A
Ni1203     O1206   1.920       .  S
Ni1203     O1208   1.914       .  S
C1204      O1214   1.280       .  A
C1204      C2106   1.503       .  S
O1205     Ni1221   1.937       .  S
O1205      C1211   1.284       .  A
O1206      C1211   1.277       .  A
C1207      C2299   1.468       .  S
O1208      C1210   1.270       .  A
O1209     Ni1220   1.929       .  S
C1210      O1216   1.274       .  A
C1210      C2076   1.494       .  S
C1211      C2096   1.488       .  S
H1212      O1213   0.966       .  S
O1213     Ni1221   1.945       .  S
O1213     Ni1215   1.913       .  S
O1213     Ni1220   1.913       .  S
O1214     Ni1215   1.963       .  S
Ni1215     O1219   1.902       .  S
Ni1215     O1217   1.905       .  S
O1216     Ni1221   1.934       .  S
C1218      O1219   1.264       .  A
C1218      C2159   1.482       .  S
O1223     Ni1229   1.937   1_554  S
O1223      C1244   1.275       .  A
O1224     Ni1247   1.917       .  S
O1224      C1233   1.270       .  A
O1225     Ni1229   1.891       .  S
O1225     Ni1247   1.891       .  S
O1225     Ni1241   1.910   1_556  S
O1225      H1248   0.966       .  S
C1226      O1243   1.281       .  A
C1226      O1235   1.275       .  A
C1226      C2099   1.486       .  S
O1227     Ni1246   1.914   1_556  S
O1227      C1233   1.267       .  A
O1228     Ni1246   1.900       .  S
O1228      C1230   1.267       .  A
Ni1229     O1232   1.922       .  S
Ni1229     O1234   1.912       .  S
C1230      O1240   1.269       .  A
C1230      C2139   1.472       .  S
O1231     Ni1247   1.928       .  S
O1231      C1237   1.283       .  A
O1232      C1237   1.279       .  A
C1233      C2279   1.478       .  S
O1234      C1236   1.271       .  A
O1235     Ni1246   1.920       .  S
C1236      O1242   1.278       .  A
C1236      C2066   1.501       .  S
C1237      C2089   1.475       .  S
H1238      O1239   0.966       .  S
O1239     Ni1247   1.931   1_554  S
O1239     Ni1241   1.903       .  S
O1239     Ni1246   1.909       .  S
O1240     Ni1241   1.927       .  S
Ni1241     O1245   1.901       .  S
Ni1241     O1243   1.930       .  S
O1242     Ni1247   1.947       .  S
C1244      O1245   1.268       .  A
C1244      C2196   1.491       .  S
O1249     Ni1255   1.908       .  S
O1249      C1270   1.266       .  A
O1250     Ni1273   1.902       .  S
O1250      C1259   1.268       .  A
O1251     Ni1255   1.907       .  S
O1251     Ni1273   1.902       .  S
O1251     Ni1267   1.930       .  S
O1251      H1274   0.966       .  S
C1252      O1269   1.286       .  A
C1252      O1261   1.275       .  A
C1252      C2026   1.473   1_554  S
O1253     Ni1272   1.920       .  S
O1253      C1259   1.272       .  A
O1254     Ni1272   1.914       .  S
O1254      C1256   1.272       .  A
Ni1255     O1258   1.914       .  S
Ni1255     O1260   1.904       .  S
C1256      O1266   1.274       .  A
C1256      C3409   1.496       .  S
O1257     Ni1273   1.924       .  S
O1257      C1263   1.277       .  A
O1258      C1263   1.274       .  A
C1259      C2049   1.478       .  S
O1260      C1262   1.267       .  A
O1261     Ni1272   1.908       .  S
C1262      O1268   1.274       .  A
C1262      C2056   1.485       .  S
C1263      C2036   1.479       .  S
H1264      O1265   0.965       .  S
O1265     Ni1273   1.914       .  S
O1265     Ni1267   1.892       .  S
O1265     Ni1272   1.895       .  S
O1266     Ni1267   1.933       .  S
Ni1267     O1271   1.923       .  S
Ni1267     O1269   1.942       .  S
O1268     Ni1273   1.937       .  S
C1270      O1271   1.271       .  A
C1270      C2016   1.479       .  S
O1275     Ni1281   1.906       .  S
O1275      C1296   1.266       .  A
O1276     Ni1299   1.907       .  S
O1276      C1285   1.268       .  A
O1277     Ni1281   1.925       .  S
O1277     Ni1299   1.915       .  S
O1277     Ni1293   1.938       .  S
O1277      H1300   0.966       .  S
C1278      O1295   1.278       .  A
C1278      O1287   1.278       .  A
C1278      C2039   1.480       .  S
O1279     Ni1298   1.933       .  S
O1279      C1285   1.273       .  A
O1280     Ni1298   1.910       .  S
O1280      C1282   1.269       .  A
Ni1281     O1284   1.932       .  S
Ni1281     O1286   1.899       .  S
C1282      O1292   1.279       .  A
C1282      C3439   1.501       .  S
O1283     Ni1299   1.908       .  S
O1283      C1289   1.268       .  A
O1284      C1289   1.269       .  A
C1285      C1996   1.484       .  S
O1286      C1288   1.267       .  A
O1287     Ni1298   1.920       .  S
C1288      O1294   1.280       .  A
C1288      C2006   1.490       .  S
C1289      C2029   1.481       .  S
H1290      O1291   0.964       .  S
O1291     Ni1299   1.900       .  S
O1291     Ni1293   1.890       .  S
O1291     Ni1298   1.901       .  S
O1292     Ni1293   1.947       .  S
Ni1293     O1297   1.905       .  S
Ni1293     O1295   1.920       .  S
O1294     Ni1299   1.960       .  S
C1296      O1297   1.268       .  A
C1296      C1986   1.461       .  S
O1301     Ni1307   1.895       .  S
O1301      C1322   1.266       .  A
O1302     Ni1325   1.900       .  S
O1302      C1311   1.269       .  A
O1303     Ni1307   1.916       .  S
O1303     Ni1325   1.910       .  S
O1303     Ni1319   1.944       .  S
O1303      H1326   0.965       .  S
C1304      O1321   1.279       .  A
C1304      O1313   1.276       .  A
C1304      C1959   1.504       .  S
O1305     Ni1324   1.928       .  S
O1305      C1311   1.272       .  A
O1306     Ni1324   1.908       .  S
O1306      C1308   1.270       .  A
Ni1307     O1310   1.919       .  S
Ni1307     O1312   1.900       .  S
C1308      O1318   1.278       .  A
C1308      C2079   1.499       .  S
O1309     Ni1325   1.931       .  S
O1309      C1315   1.272       .  A
O1310      C1315   1.265       .  A
C1311      C1976   1.481       .  S
O1312      C1314   1.271       .  A
O1313     Ni1324   1.918       .  S
C1314      O1320   1.283       .  A
C1314      C2059   1.488       .  S
C1315      C1969   1.491       .  S
H1316      O1317   0.966       .  S
O1317     Ni1325   1.908       .  S
O1317     Ni1319   1.892       .  S
O1317     Ni1324   1.901       .  S
O1318     Ni1319   1.948       .  S
Ni1319     O1323   1.919       .  S
Ni1319     O1321   1.928       .  S
O1320     Ni1325   1.969       .  S
C1322      O1323   1.271       .  A
C1322      C1949   1.468       .  S
O1327     Ni1333   1.880       .  S
O1327      C1348   1.262       .  A
O1328     Ni1351   1.897       .  S
O1328      C1337   1.267       .  A
O1329     Ni1333   1.912       .  S
O1329     Ni1351   1.903       .  S
O1329     Ni1345   1.951       .  S
O1329      H1352   0.965       .  S
C1330      O1347   1.281       .  A
C1330      O1339   1.274       .  A
C1330      C1966   1.503       .  S
O1331     Ni1350   1.925       .  S
O1331      C1337   1.272       .  A
O1332     Ni1350   1.904       .  S
O1332      C1334   1.270       .  A
Ni1333     O1336   1.904       .  S
Ni1333     O1338   1.894       .  S
C1334      O1344   1.282       .  A
C1334      C2069   1.504       .  S
O1335     Ni1351   1.941       .  S
O1335      C1341   1.270       .  A
O1336      C1341   1.256       .  A
C1337      C1936   1.474       .  S
O1338      C1340   1.275       .  A
O1339     Ni1350   1.914       .  S
C1340      O1346   1.285       .  A
C1340      C2009   1.492       .  S
C1341      C1956   1.487       .  S
H1342      O1343   0.966       .  S
O1343     Ni1351   1.904       .  S
O1343     Ni1345   1.894       .  S
O1343     Ni1350   1.894       .  S
O1344     Ni1345   1.960       .  S
Ni1345     O1349   1.929       .  S
Ni1345     O1347   1.934       .  S
O1346     Ni1351   1.966       .  S
C1348      O1349   1.276       .  A
C1348      C1926   1.472       .  S
O1353     Ni1359   1.909       .  S
O1353      C1374   1.264       .  A
O1354     Ni1377   1.905       .  S
O1354      C1363   1.267       .  A
O1355     Ni1359   1.904       .  S
O1355     Ni1377   1.895       .  S
O1355     Ni1371   1.913       .  S
O1355      H1378   0.967       .  S
C1356      O1373   1.275       .  A
C1356      O1365   1.276       .  A
C1356      C1896   1.471       .  S
O1357     Ni1376   1.921       .  S
O1357      C1363   1.270       .  A
O1358     Ni1376   1.908       .  S
O1358      C1360   1.268       .  A
Ni1359     O1362   1.910       .  S
Ni1359     O1364   1.894       .  S
C1360      O1370   1.277       .  A
C1360      C3039   1.494       .  S
O1361     Ni1377   1.925       .  S
O1361      C1367   1.280       .  A
O1362      C1367   1.274       .  A
C1363      C2046   1.479       .  S
O1364      C1366   1.265       .  A
O1365     Ni1376   1.915       .  S
C1366      O1372   1.273       .  A
C1366      C1916   1.481       .  S
C1367      C1906   1.492       .  S
H1368      O1369   0.965       .  S
O1369     Ni1377   1.921       .  S
O1369     Ni1371   1.906       .  S
O1369     Ni1376   1.903       .  S
O1370     Ni1371   1.938       .  S
Ni1371     O1375   1.915       .  S
Ni1371     O1373   1.915       .  S
O1372     Ni1377   1.942       .  S
C1374      O1375   1.268       .  A
C1374      C1889   1.473       .  S
O1379     Ni1385   1.902       .  S
O1379      C1400   1.264       .  A
O1380     Ni1403   1.911       .  S
O1380      C1389   1.271       .  A
O1381     Ni1385   1.908       .  S
O1381     Ni1403   1.912       .  S
O1381     Ni1397   1.920       .  S
O1381      H1404   0.968       .  S
C1382      O1399   1.277       .  A
C1382      O1391   1.278       .  A
C1382      C1909   1.499       .  S
O1383     Ni1402   1.931       .  S
O1383      C1389   1.273       .  A
O1384     Ni1402   1.905       .  S
O1384      C1386   1.268       .  A
Ni1385     O1388   1.901       .  S
Ni1385     O1390   1.897       .  S
C1386      O1396   1.271       .  A
C1386      C3029   1.488       .  S
O1387     Ni1403   1.916       .  S
O1387      C1393   1.273       .  A
O1388      C1393   1.269       .  A
C1389      C1999   1.484       .  S
O1390      C1392   1.267       .  A
O1391     Ni1402   1.921       .  S
C1392      O1398   1.277       .  A
C1392      C1879   1.485       .  S
C1393      C1899   1.468       .  S
H1394      O1395   0.957       .  S
O1395     Ni1403   1.903       .  S
O1395     Ni1397   1.889       .  S
O1395     Ni1402   1.898       .  S
O1396     Ni1397   1.927       .  S
Ni1397     O1401   1.910       .  S
Ni1397     O1399   1.917       .  S
O1398     Ni1403   1.943       .  S
C1400      O1401   1.265       .  A
C1400      C1866   1.464       .  S
O1405     Ni1411   1.905       .  S
O1405      C1426   1.265       .  A
O1406     Ni1429   1.899       .  S
O1406      C1415   1.267       .  A
O1407     Ni1411   1.902       .  S
O1407     Ni1429   1.899       .  S
O1407     Ni1423   1.920       .  S
O1407      H1430   0.967       .  S
C1408      O1425   1.279   1_556  A
C1408      O1417   1.277       .  A
C1408      C1849   1.479       .  S
O1409     Ni1428   1.932       .  S
O1409      C1415   1.274       .  A
O1410     Ni1428   1.913       .  S
O1410      C1412   1.271       .  A
Ni1411     O1414   1.908       .  S
Ni1411     O1416   1.909       .  S
C1412      O1422   1.274       .  A
C1412      C2269   1.488       .  S
O1413     Ni1429   1.926       .  S
O1413      C1419   1.279       .  A
O1414      C1419   1.273       .  A
C1415      C1979   1.478       .  S
O1416      C1418   1.269       .  A
O1417     Ni1428   1.920   1_556  S
C1418      O1424   1.269       .  A
C1418      C1919   1.475       .  S
C1419      C1856   1.478       .  S
H1420      O1421   0.966       .  S
O1421     Ni1429   1.916       .  S
O1421     Ni1423   1.897       .  S
O1421     Ni1428   1.894       .  S
O1422     Ni1423   1.932       .  S
Ni1423     O1427   1.912       .  S
Ni1423     O1425   1.920       .  S
O1424     Ni1429   1.924       .  S
C1426      O1427   1.269       .  A
C1426      C1836   1.479       .  S
O1431     Ni1437   1.907       .  S
O1431      C1452   1.264       .  A
O1432     Ni1455   1.895       .  S
O1432      C1441   1.267       .  A
O1433     Ni1437   1.901       .  S
O1433     Ni1455   1.890       .  S
O1433     Ni1449   1.921       .  S
O1433      H1456   0.967       .  S
C1434      O1451   1.281       .  A
C1434      O1443   1.278       .  A
C1434      C1859   1.476       .  S
O1435     Ni1454   1.926       .  S
O1435      C1441   1.274       .  A
O1436     Ni1454   1.910       .  S
O1436      C1438   1.270       .  A
Ni1437     O1440   1.913       .  S
Ni1437     O1442   1.903       .  S
C1438      O1448   1.276       .  A
C1438      C2289   1.495       .  S
O1439     Ni1455   1.926       .  S
O1439      C1445   1.281       .  A
O1440      C1445   1.275       .  A
C1441      C1939   1.471       .  S
O1442      C1444   1.266       .  A
O1443     Ni1454   1.919       .  S
C1444      O1450   1.270       .  A
C1444      C1876   1.474       .  S
C1445      C1846   1.478       .  S
H1446      O1447   0.966       .  S
O1447     Ni1455   1.917       .  S
O1447     Ni1449   1.892       .  S
O1447     Ni1454   1.895       .  S
O1448     Ni1449   1.937       .  S
Ni1449     O1453   1.912       .  S
Ni1449     O1451   1.923       .  S
O1450     Ni1455   1.929       .  S
C1452      O1453   1.269       .  A
C1452      C1826   1.470       .  S
O1457     Ni1463   1.902   1_554  S
O1457      C1478   1.266       .  A
O1458     Ni1481   1.910       .  S
O1458      C1467   1.267       .  A
O1459     Ni1463   1.911       .  S
O1459     Ni1481   1.918       .  S
O1459     Ni1475   1.943   1_556  S
O1459      H1482   0.967       .  S
C1460      O1477   1.284       .  A
C1460      O1469   1.277       .  A
C1460      C1796   1.480       .  S
O1461     Ni1480   1.937       .  S
O1461      C1467   1.273   1_554  A
O1462     Ni1480   1.916       .  S
O1462      C1464   1.271       .  A
Ni1463     O1466   1.940       .  S
Ni1463     O1468   1.895       .  S
C1464      O1474   1.272       .  A
C1464      C3289   1.493       .  S
O1465     Ni1481   1.901       .  S
O1465      C1471   1.267       .  A
O1466      C1471   1.271       .  A
C1467      C1809   1.494       .  S
O1468      C1470   1.263       .  A
O1469     Ni1480   1.916       .  S
C1470      O1476   1.280       .  A
C1470      C1819   1.488       .  S
C1471      C1786   1.489       .  S
H1472      O1473   0.965       .  S
O1473     Ni1481   1.895   1_554  S
O1473     Ni1475   1.898       .  S
O1473     Ni1480   1.906       .  S
O1474     Ni1475   1.928       .  S
Ni1475     O1479   1.923       .  S
Ni1475     O1477   1.934       .  S
O1476     Ni1481   1.964       .  S
C1478      O1479   1.272       .  A
C1478      C2019   1.474       .  S
O1483     Ni1489   1.902       .  S
O1483      C1504   1.266       .  A
O1484     Ni1507   1.899       .  S
O1484      C1493   1.267       .  A
O1485     Ni1489   1.909       .  S
O1485     Ni1507   1.911       .  S
O1485     Ni1501   1.943       .  S
O1485      H1508   0.968       .  S
C1486      O1503   1.282       .  A
C1486      O1495   1.275       .  A
C1486      C1789   1.481       .  S
O1487     Ni1506   1.929       .  S
O1487      C1493   1.271       .  A
O1488     Ni1506   1.909       .  S
O1488      C1490   1.270       .  A
Ni1489     O1492   1.935       .  S
Ni1489     O1494   1.899       .  S
C1490      O1500   1.267       .  A
C1490      C3269   1.480       .  S
O1491     Ni1507   1.910       .  S
O1491      C1497   1.268       .  A
O1492      C1497   1.270       .  A
C1493      C1766   1.477       .  S
O1494      C1496   1.267       .  A
O1495     Ni1506   1.916       .  S
C1496      O1502   1.282       .  A
C1496      C1779   1.490       .  S
C1497      C1799   1.495       .  S
H1498      O1499   0.966       .  S
O1499     Ni1507   1.901       .  S
O1499     Ni1501   1.894       .  S
O1499     Ni1506   1.910       .  S
O1500     Ni1501   1.913       .  S
Ni1501     O1505   1.908       .  S
Ni1501     O1503   1.934       .  S
O1502     Ni1507   1.965       .  S
C1504      O1505   1.267       .  A
C1504      C1989   1.463       .  S
O1509     Ni1515   1.916       .  S
O1509      C1530   1.268       .  A
O1510     Ni1533   1.901       .  S
O1510      C1519   1.271       .  A
O1511     Ni1515   1.894       .  S
O1511     Ni1533   1.895       .  S
O1511     Ni1527   1.921       .  S
O1511      H1534   0.966       .  S
C1512      O1529   1.281       .  A
C1512      O1521   1.278       .  A
C1512      C1746   1.480       .  S
O1513     Ni1532   1.928       .  S
O1513      C1519   1.273       .  A
O1514     Ni1532   1.912       .  S
O1514      C1516   1.270       .  A
Ni1515     O1518   1.916       .  S
Ni1515     O1520   1.900       .  S
C1516      O1526   1.273       .  A
C1516      C2169   1.486       .  S
O1517     Ni1533   1.927       .  S
O1517      C1523   1.280       .  A
O1518      C1523   1.276       .  A
C1519      C1756   1.476       .  S
O1520      C1522   1.268       .  A
O1521     Ni1532   1.919       .  S
C1522      O1528   1.276       .  A
C1522      C1776   1.488       .  S
C1523      C1739   1.481       .  S
H1524      O1525   0.966       .  S
O1525     Ni1533   1.916       .  S
O1525     Ni1527   1.892       .  S
O1525     Ni1532   1.894       .  S
O1526     Ni1527   1.929       .  S
Ni1527     O1531   1.914       .  S
Ni1527     O1529   1.923       .  S
O1528     Ni1533   1.944       .  S
C1530      O1531   1.269       .  A
C1530      C1946   1.473       .  S
O1535     Ni1541   1.908       .  S
O1535      C1556   1.265       .  A
O1536     Ni1559   1.894       .  S
O1536      C1545   1.267       .  A
O1537     Ni1541   1.899       .  S
O1537     Ni1559   1.892       .  S
O1537     Ni1553   1.923       .  S
O1537      H1560   0.966       .  S
C1538      O1555   1.284       .  A
C1538      O1547   1.277       .  A
C1538      C1736   1.480       .  S
O1539     Ni1558   1.932       .  S
O1539      C1545   1.275       .  A
O1540     Ni1558   1.911       .  S
O1540      C1542   1.272       .  A
Ni1541     O1544   1.909       .  S
Ni1541     O1546   1.903       .  S
C1542      O1552   1.270       .  A
C1542      C2149   1.488       .  S
O1543     Ni1559   1.925       .  S
O1543      C1549   1.278   1_556  A
O1544      C1549   1.273   1_556  A
C1545      C1726   1.472       .  S
O1546      C1548   1.268       .  A
O1547     Ni1558   1.915       .  S
C1548      O1554   1.270       .  A
C1548      C1816   1.480       .  S
C1549      C1749   1.474       .  S
H1550      O1551   0.966       .  S
O1551     Ni1559   1.909       .  S
O1551     Ni1553   1.890       .  S
O1551     Ni1558   1.890       .  S
O1552     Ni1553   1.920       .  S
Ni1553     O1557   1.910       .  S
Ni1553     O1555   1.931       .  S
O1554     Ni1559   1.923       .  S
C1556      O1557   1.268       .  A
C1556      C1929   1.458       .  S
O1561     Ni1567   1.910       .  S
O1561      C1582   1.265       .  A
O1562     Ni1585   1.886       .  S
O1562      C1571   1.263       .  A
O1563     Ni1567   1.907       .  S
O1563     Ni1585   1.894   1_545  S
O1563     Ni1579   1.919       .  S
O1563      H1586   0.966       .  S
C1564      O1581   1.280   1_565  A
C1564      O1573   1.275       .  A
C1564      C1709   1.469       .  S
O1565     Ni1584   1.931       .  S
O1565      C1571   1.274       .  A
O1566     Ni1584   1.923       .  S
O1566      C1568   1.273       .  A
Ni1567     O1570   1.921       .  S
Ni1567     O1572   1.897       .  S
C1568      O1578   1.270   1_565  A
C1568      C3146   1.497       .  S
O1569     Ni1585   1.920       .  S
O1569      C1575   1.276   1_565  A
O1570      C1575   1.275       .  A
C1571      C1769   1.477       .  S
O1572      C1574   1.265       .  A
O1573     Ni1584   1.914       .  S
C1574      O1580   1.274   1_545  A
C1574      C1716   1.486       .  S
C1575      C1699   1.494       .  S
H1576      O1577   0.966       .  S
O1577     Ni1585   1.916       .  S
O1577     Ni1579   1.899   1_565  S
O1577     Ni1584   1.913       .  S
O1578     Ni1579   1.927       .  S
Ni1579     O1583   1.905       .  S
Ni1579     O1581   1.923       .  S
O1580     Ni1585   1.948       .  S
C1582      O1583   1.264       .  A
C1582      C1886   1.467       .  S
O1587     Ni1593   1.897       .  S
O1587      C1608   1.259       .  A
O1588     Ni1611   1.901       .  S
O1588      C1597   1.268       .  A
O1589     Ni1593   1.911       .  S
O1589     Ni1611   1.900   1_545  S
O1589     Ni1605   1.920       .  S
O1589      H1612   0.966       .  S
C1590      O1607   1.277   1_565  A
C1590      O1599   1.280       .  A
C1590      C1696   1.501       .  S
O1591     Ni1610   1.945       .  S
O1591      C1597   1.277       .  A
O1592     Ni1610   1.906       .  S
O1592      C1594   1.270       .  A
Ni1593     O1596   1.902       .  S
Ni1593     O1598   1.898       .  S
C1594      O1604   1.276   1_565  A
C1594      C3129   1.500   1_565  S
O1595     Ni1611   1.926       .  S
O1595      C1601   1.279   1_566  A
O1596      C1601   1.271   1_556  A
C1597      C1806   1.486       .  S
O1598      C1600   1.266       .  A
O1599     Ni1610   1.929       .  S
C1600      O1606   1.268   1_545  A
C1600      C1686   1.472       .  S
C1601      C1706   1.467       .  S
H1602      O1603   0.966       .  S
O1603     Ni1611   1.911       .  S
O1603     Ni1605   1.899   1_565  S
O1603     Ni1610   1.897       .  S
O1604     Ni1605   1.941       .  S
Ni1605     O1609   1.918       .  S
Ni1605     O1607   1.921       .  S
O1606     Ni1611   1.925       .  S
C1608      O1609   1.269       .  A
C1608      C1869   1.475       .  S
O1613     Ni1619   1.902       .  S
O1613      C1634   1.266   1_556  A
O1614     Ni1637   1.897       .  S
O1614      C1623   1.265       .  A
O1615     Ni1619   1.914       .  S
O1615     Ni1637   1.910   1_545  S
O1615     Ni1631   1.939   1_556  S
O1615      H1638   0.967       .  S
C1616      O1633   1.282   1_565  A
C1616      O1625   1.273       .  A
C1616      C1676   1.482       .  S
O1617     Ni1636   1.924       .  S
O1617      C1623   1.270   1_554  A
O1618     Ni1636   1.916       .  S
O1618      C1620   1.272       .  A
Ni1619     O1622   1.933       .  S
Ni1619     O1624   1.893       .  S
C1620      O1630   1.271   1_565  A
C1620      C2486   1.487       .  S
O1621     Ni1637   1.909       .  S
O1621      C1627   1.268       .  A
O1622      C1627   1.270   1_545  A
C1623      C1729   1.482       .  S
O1624      C1626   1.265       .  A
O1625     Ni1636   1.909       .  S
C1626      O1632   1.280   1_545  A
C1626      C1689   1.480       .  S
C1627      C1666   1.479       .  S
H1628      O1629   0.959       .  S
O1629     Ni1637   1.902   1_554  S
O1629     Ni1631   1.896   1_565  S
O1629     Ni1636   1.908       .  S
O1630     Ni1631   1.923       .  S
Ni1631     O1635   1.908       .  S
Ni1631     O1633   1.936       .  S
O1632     Ni1637   1.958       .  S
C1634      O1635   1.269       .  A
C1634      C1839   1.461       .  S
O1639     Ni1645   1.911       .  S
O1639      C1660   1.265       .  A
O1640     Ni1663   1.890       .  S
O1640      C1649   1.267       .  A
O1641     Ni1645   1.907       .  S
O1641     Ni1663   1.894   1_545  S
O1641     Ni1657   1.929       .  S
O1641      H1664   0.966       .  S
C1642      O1659   1.282   1_565  A
C1642      O1651   1.277       .  A
C1642      C1669   1.476       .  S
O1643     Ni1662   1.932       .  S
O1643      C1649   1.275       .  A
O1644     Ni1662   1.913       .  S
O1644      C1646   1.271       .  A
Ni1645     O1648   1.925       .  S
Ni1645     O1650   1.895       .  S
C1646      O1656   1.274   1_565  A
C1646      C2449   1.499   1_565  S
O1647     Ni1663   1.920       .  S
O1647      C1653   1.277   1_565  A
O1648      C1653   1.277       .  A
C1649      C1759   1.482       .  S
O1650      C1652   1.265       .  A
O1651     Ni1662   1.920       .  S
C1652      O1658   1.273   1_545  A
C1652      C1719   1.477   1_545  S
C1653      C1679   1.485       .  S
H1654      O1655   0.966       .  S
O1655     Ni1663   1.915       .  S
O1655     Ni1657   1.893   1_565  S
O1655     Ni1662   1.900       .  S
O1656     Ni1657   1.935       .  S
Ni1657     O1661   1.910       .  S
Ni1657     O1659   1.932       .  S
O1658     Ni1663   1.937       .  S
C1660      O1661   1.267       .  A
C1660      C1829   1.467       .  S
C1665      C1666   1.412       .  A
C1665      C1670   1.407       .  A
C1665     Br1672   1.924       .  S
C1666      C1667   1.408       .  A
C1667      C1668   1.408       .  A
C1667     Br1674   1.932       .  S
C1668      C1669   1.413       .  A
C1668     Br1673   1.926       .  S
C1669      C1670   1.406       .  A
C1670     Br1671   1.930       .  S
C1675      C1676   1.418       .  A
C1675      C1680   1.406       .  A
C1675     Br1682   1.934       .  S
C1676      C1677   1.407   1_565  A
C1677      C1678   1.412       .  A
C1677     Br1684   1.931       .  S
C1678      C1679   1.418       .  A
C1678     Br1683   1.931       .  S
C1679      C1680   1.410   1_545  A
C1680     Br1681   1.936       .  S
C1685      C1686   1.402       .  A
C1685      C1690   1.400       .  A
C1685     Br1692   1.928       .  S
C1686      C1687   1.408   1_545  A
C1687      C1688   1.411       .  A
C1687     Br1694   1.930   1_556  S
C1688      C1689   1.414   1_565  A
C1688     Br1693   1.926   1_556  S
C1689      C1690   1.417       .  A
C1690     Br1691   1.938       .  S
C1695      C1696   1.418       .  A
C1695      C1700   1.411       .  A
C1695     Br1702   1.939       .  S
C1696      C1697   1.418   1_565  A
C1697      C1698   1.408       .  A
C1697     Br1704   1.935       .  S
C1698      C1699   1.417       .  A
C1698     Br1703   1.939       .  S
C1699      C1700   1.418   1_545  A
C1700     Br1701   1.936       .  S
C1705      C1706   1.414       .  A
C1705      C1710   1.404       .  A
C1705     Br1712   1.930       .  S
C1706      C1707   1.404   1_545  A
C1707      C1708   1.404       .  A
C1707     Br1714   1.932       .  S
C1708      C1709   1.414       .  A
C1708     Br1713   1.929       .  S
C1709      C1710   1.405   1_565  A
C1710     Br1711   1.932       .  S
C1715      C1716   1.416       .  A
C1715      C1720   1.405       .  A
C1715     Br1722   1.932       .  S
C1716      C1717   1.412   1_545  A
C1717      C1718   1.414       .  A
C1717     Br1724   1.926       .  S
C1718      C1719   1.411       .  A
C1718     Br1723   1.929       .  S
C1719      C1720   1.406   1_565  A
C1720     Br1721   1.934       .  S
C1725      C1726   1.409       .  A
C1725      C1730   1.405       .  A
C1725     Br1732   1.933       .  S
C1726      C1727   1.408       .  A
C1727      C1728   1.405       .  A
C1727     Br1734   1.933       .  S
C1728      C1729   1.416       .  A
C1728     Br1733   1.929       .  S
C1729      C1730   1.415       .  A
C1730     Br1731   1.934       .  S
C1735      C1736   1.406       .  A
C1735      C1740   1.407       .  A
C1735     Br1742   1.930       .  S
C1736      C1737   1.418       .  A
C1737      C1738   1.408       .  A
C1737     Br1744   1.934       .  S
C1738      C1739   1.408       .  A
C1738     Br1743   1.934       .  S
C1739      C1740   1.418       .  A
C1740     Br1741   1.933       .  S
C1745      C1746   1.420       .  A
C1745      C1750   1.407       .  A
C1745     Br1752   1.933       .  S
C1746      C1747   1.409       .  A
C1747      C1748   1.406       .  A
C1747     Br1754   1.934       .  S
C1748      C1749   1.415       .  A
C1748     Br1753   1.933       .  S
C1749      C1750   1.405       .  A
C1750     Br1751   1.934       .  S
C1755      C1756   1.412       .  A
C1755      C1760   1.407       .  A
C1755     Br1762   1.930       .  S
C1756      C1757   1.408       .  A
C1757      C1758   1.404       .  A
C1757     Br1764   1.935       .  S
C1758      C1759   1.417       .  A
C1758     Br1763   1.935       .  S
C1759      C1760   1.415       .  A
C1760     Br1761   1.933       .  S
C1765      C1766   1.413       .  A
C1765      C1770   1.406       .  A
C1765     Br1772   1.928       .  S
C1766      C1767   1.409       .  A
C1767      C1768   1.404       .  A
C1767     Br1774   1.932       .  S
C1768      C1769   1.415       .  A
C1768     Br1773   1.936       .  S
C1769      C1770   1.410       .  A
C1770     Br1771   1.933       .  S
C1775      C1776   1.413       .  A
C1775      C1780   1.417       .  A
C1775     Br1782   1.929       .  S
C1776      C1777   1.407       .  A
C1777      C1778   1.401       .  A
C1777     Br1784   1.923       .  S
C1778      C1779   1.418       .  A
C1778     Br1783   1.943       .  S
C1779      C1780   1.415       .  A
C1780     Br1781   1.926       .  S
C1785      C1786   1.412       .  A
C1785      C1790   1.407       .  A
C1785     Br1792   1.937       .  S
C1786      C1787   1.418       .  A
C1787      C1788   1.410       .  A
C1787     Br1794   1.924       .  S
C1788      C1789   1.405       .  A
C1788     Br1793   1.931       .  S
C1789      C1790   1.416       .  A
C1790     Br1791   1.932       .  S
C1795      C1796   1.416       .  A
C1795      C1800   1.409       .  A
C1795     Br1802   1.934       .  S
C1796      C1797   1.403       .  A
C1797      C1798   1.408       .  A
C1797     Br1804   1.934       .  S
C1798      C1799   1.420       .  A
C1798     Br1803   1.920       .  S
C1799      C1800   1.415       .  A
C1800     Br1801   1.935       .  S
C1805      C1806   1.411       .  A
C1805      C1810   1.411       .  A
C1805     Br1812   1.935       .  S
C1806      C1807   1.411       .  A
C1807      C1808   1.408       .  A
C1807     Br1814   1.927   1_556  S
C1808      C1809   1.417       .  A
C1808     Br1813   1.937   1_556  S
C1809      C1810   1.419       .  A
C1810     Br1811   1.929       .  S
C1815      C1816   1.414       .  A
C1815      C1820   1.413       .  A
C1815     Br1822   1.933       .  S
C1816      C1817   1.407       .  A
C1817      C1818   1.402       .  A
C1817     Br1824   1.938       .  S
C1818      C1819   1.422       .  A
C1818     Br1823   1.942       .  S
C1819      C1820   1.414       .  A
C1820     Br1821   1.931   1_556  S
C1825      C1826   1.407       .  A
C1825      C1830   1.402       .  A
C1825     Br1832   1.931       .  S
C1826      C1827   1.416       .  A
C1827      C1828   1.404       .  A
C1827     Br1834   1.934       .  S
C1828      C1829   1.406       .  A
C1828     Br1833   1.933       .  S
C1829      C1830   1.413       .  A
C1830     Br1831   1.933       .  S
C1835      C1836   1.418       .  A
C1835      C1840   1.402       .  A
C1835     Br1842   1.935       .  S
C1836      C1837   1.418       .  A
C1837      C1838   1.407       .  A
C1837     Br1844   1.932       .  S
C1838      C1839   1.403       .  A
C1838     Br1843   1.930       .  S
C1839      C1840   1.405       .  A
C1840     Br1841   1.937       .  S
C1845      C1846   1.407       .  A
C1845      C1850   1.405       .  A
C1845     Br1852   1.934       .  S
C1846      C1847   1.417       .  A
C1847      C1848   1.408       .  A
C1847     Br1854   1.935       .  S
C1848      C1849   1.410       .  A
C1848     Br1853   1.934       .  S
C1849      C1850   1.417       .  A
C1850     Br1851   1.934       .  S
C1855      C1856   1.419       .  A
C1855      C1860   1.406       .  A
C1855     Br1862   1.935       .  S
C1856      C1857   1.409       .  A
C1857      C1858   1.407       .  A
C1857     Br1864   1.934       .  S
C1858      C1859   1.416       .  A
C1858     Br1863   1.932       .  S
C1859      C1860   1.406       .  A
C1860     Br1861   1.934       .  S
C1865      C1866   1.408       .  A
C1865      C1870   1.407       .  A
C1865     Br1872   1.929       .  S
C1866      C1867   1.406       .  A
C1867      C1868   1.400       .  A
C1867     Br1874   1.939       .  S
C1868      C1869   1.416       .  A
C1868     Br1873   1.929       .  S
C1869      C1870   1.413       .  A
C1870     Br1871   1.932       .  S
C1875      C1876   1.410       .  A
C1875      C1880   1.411       .  A
C1875     Br1882   1.930       .  S
C1876      C1877   1.405       .  A
C1877      C1878   1.406       .  A
C1877     Br1884   1.933       .  S
C1878      C1879   1.419       .  A
C1878     Br1883   1.935       .  S
C1879      C1880   1.413       .  A
C1880     Br1881   1.929       .  S
C1885      C1886   1.411       .  A
C1885      C1890   1.403       .  A
C1885     Br1892   1.934       .  S
C1886      C1887   1.405       .  A
C1887      C1888   1.404       .  A
C1887     Br1894   1.932       .  S
C1888      C1889   1.416       .  A
C1888     Br1893   1.934       .  S
C1889      C1890   1.408       .  A
C1890     Br1891   1.928       .  S
C1895      C1896   1.414       .  A
C1895      C1900   1.403       .  A
C1895     Br1902   1.932       .  S
C1896      C1897   1.408       .  A
C1897      C1898   1.405       .  A
C1897     Br1904   1.932       .  S
C1898      C1899   1.412       .  A
C1898     Br1903   1.933       .  S
C1899      C1900   1.408       .  A
C1900     Br1901   1.934       .  S
C1905      C1906   1.417       .  A
C1905      C1910   1.411       .  A
C1905     Br1912   1.938       .  S
C1906      C1907   1.419       .  A
C1907      C1908   1.406   1_554  A
C1907     Br1914   1.941       .  S
C1908      C1909   1.418       .  A
C1908     Br1913   1.941       .  S
C1909      C1910   1.421   1_556  A
C1910     Br1911   1.940   1_554  S
C1915      C1916   1.410       .  A
C1915      C1920   1.412       .  A
C1915     Br1922   1.927       .  S
C1916      C1917   1.414       .  A
C1917      C1918   1.404       .  A
C1917     Br1924   1.930       .  S
C1918      C1919   1.405       .  A
C1918     Br1923   1.932       .  S
C1919      C1920   1.412       .  A
C1920     Br1921   1.928       .  S
C1925      C1926   1.409       .  A
C1925      C1930   1.406       .  A
C1925     Br1932   1.923       .  S
C1926      C1927   1.419       .  A
C1927      C1928   1.398       .  A
C1927     Br1934   1.938       .  S
C1928      C1929   1.400       .  A
C1928     Br1933   1.929       .  S
C1929      C1930   1.407       .  A
C1930     Br1931   1.929       .  S
C1935      C1936   1.412       .  A
C1935      C1940   1.403       .  A
C1935     Br1942   1.931       .  S
C1936      C1937   1.411       .  A
C1937      C1938   1.405       .  A
C1937     Br1944   1.933       .  S
C1938      C1939   1.412       .  A
C1938     Br1943   1.933       .  S
C1939      C1940   1.408       .  A
C1940     Br1941   1.933       .  S
C1945      C1946   1.406       .  A
C1945      C1950   1.397       .  A
C1945     Br1952   1.923       .  S
C1946      C1947   1.412       .  A
C1947      C1948   1.412       .  A
C1947     Br1954   1.930       .  S
C1948      C1949   1.410       .  A
C1948     Br1953   1.927       .  S
C1949      C1950   1.407       .  A
C1950     Br1951   1.933       .  S
C1955      C1956   1.408       .  A
C1955      C1960   1.412       .  A
C1955     Br1962   1.933       .  S
C1956      C1957   1.419       .  A
C1957      C1958   1.408       .  A
C1957     Br1964   1.941       .  S
C1958      C1959   1.418       .  A
C1958     Br1963   1.940       .  S
C1959      C1960   1.424       .  A
C1960     Br1961   1.936       .  S
C1965      C1966   1.416       .  A
C1965      C1970   1.410   1_556  A
C1965     Br1972   1.938       .  S
C1966      C1967   1.424       .  A
C1967      C1968   1.411   1_556  A
C1967     Br1974   1.938       .  S
C1968      C1969   1.411       .  A
C1968     Br1973   1.934       .  S
C1969      C1970   1.419       .  A
C1970     Br1971   1.937       .  S
C1975      C1976   1.414       .  A
C1975      C1980   1.406       .  A
C1975     Br1982   1.935       .  S
C1976      C1977   1.413       .  A
C1977      C1978   1.407       .  A
C1977     Br1984   1.930       .  S
C1978      C1979   1.410       .  A
C1978     Br1983   1.930       .  S
C1979      C1980   1.412       .  A
C1980     Br1981   1.934       .  S
C1985      C1986   1.407       .  A
C1985      C1990   1.399       .  A
C1985     Br1992   1.932       .  S
C1986      C1987   1.407       .  A
C1987      C1988   1.407       .  A
C1987     Br1994   1.929       .  S
C1988      C1989   1.410       .  A
C1988     Br1993   1.927       .  S
C1989      C1990   1.408       .  A
C1990     Br1991   1.934       .  S
C1995      C1996   1.412       .  A
C1995      C2000   1.407       .  A
C1995     Br2002   1.928       .  S
C1996      C1997   1.413       .  A
C1997      C1998   1.408       .  A
C1997     Br2004   1.934       .  S
C1998      C1999   1.412       .  A
C1998     Br2003   1.928       .  S
C1999      C2000   1.414       .  A
C2000     Br2001   1.935       .  S
C2005      C2006   1.418       .  A
C2005      C2010   1.407       .  A
C2005     Br2012   1.938       .  S
C2006      C2007   1.412       .  A
C2007      C2008   1.413       .  A
C2007     Br2014   1.931       .  S
C2008      C2009   1.419       .  A
C2008     Br2013   1.932       .  S
C2009      C2010   1.413       .  A
C2010     Br2011   1.937       .  S
C2015      C2016   1.412       .  A
C2015      C2020   1.403       .  A
C2015     Br2022   1.936       .  S
C2016      C2017   1.414       .  A
C2017      C2018   1.412       .  A
C2017     Br2024   1.930       .  S
C2018      C2019   1.409       .  A
C2018     Br2023   1.928       .  S
C2019      C2020   1.410       .  A
C2020     Br2021   1.935       .  S
C2025      C2026   1.414       .  A
C2025      C2030   1.404       .  A
C2025     Br2032   1.926       .  S
C2026      C2027   1.403       .  A
C2027      C2028   1.408       .  A
C2027     Br2034   1.931       .  S
C2028      C2029   1.415       .  A
C2028     Br2033   1.920       .  S
C2029      C2030   1.407       .  A
C2030     Br2031   1.933       .  S
C2035      C2036   1.414       .  A
C2035      C2040   1.408       .  A
C2035     Br2042   1.933       .  S
C2036      C2037   1.410       .  A
C2037      C2038   1.407       .  A
C2037     Br2044   1.933       .  S
C2038      C2039   1.416       .  A
C2038     Br2043   1.935       .  S
C2039      C2040   1.411       .  A
C2040     Br2041   1.933       .  S
C2045      C2046   1.413       .  A
C2045      C2050   1.405       .  A
C2045     Br2052   1.935       .  S
C2046      C2047   1.413       .  A
C2047      C2048   1.408       .  A
C2047     Br2054   1.934       .  S
C2048      C2049   1.414       .  A
C2048     Br2053   1.935       .  S
C2049      C2050   1.410       .  A
C2050     Br2051   1.933       .  S
C2055      C2056   1.415       .  A
C2055      C2060   1.409       .  A
C2055     Br2062   1.932       .  S
C2056      C2057   1.410       .  A
C2057      C2058   1.411       .  A
C2057     Br2064   1.931       .  S
C2058      C2059   1.415       .  A
C2058     Br2063   1.924       .  S
C2059      C2060   1.410       .  A
C2060     Br2061   1.932       .  S
C2065      C2066   1.412       .  A
C2065      C2070   1.414       .  A
C2065     Br2072   1.933       .  S
C2066      C2067   1.419       .  A
C2067      C2068   1.417       .  A
C2067     Br2074   1.932       .  S
C2068      C2069   1.414       .  A
C2068     Br2073   1.931       .  S
C2069      C2070   1.417       .  A
C2070     Br2071   1.918       .  S
C2075      C2076   1.418       .  A
C2075      C2080   1.413       .  A
C2075     Br2082   1.932       .  S
C2076      C2077   1.410       .  A
C2077      C2078   1.414       .  A
C2077     Br2084   1.934       .  S
C2078      C2079   1.418       .  A
C2078     Br2083   1.922       .  S
C2079      C2080   1.412       .  A
C2080     Br2081   1.930       .  S
C2085      C2086   1.410       .  A
C2085      C2090   1.406       .  A
C2085     Br2092   1.932       .  S
C2086      C2087   1.414       .  A
C2087      C2088   1.407       .  A
C2087     Br2094   1.924       .  S
C2088      C2089   1.406       .  A
C2088     Br2093   1.931       .  S
C2089      C2090   1.413       .  A
C2090     Br2091   1.929       .  S
C2095      C2096   1.409       .  A
C2095      C2100   1.414       .  A
C2095     Br2102   1.932       .  S
C2096      C2097   1.419       .  A
C2097      C2098   1.407       .  A
C2097     Br2104   1.932       .  S
C2098      C2099   1.406       .  A
C2098     Br2103   1.934       .  S
C2099      C2100   1.420       .  A
C2100     Br2101   1.932       .  S
C2105      C2106   1.418       .  A
C2105      C2110   1.419       .  A
C2105     Br2112   1.932       .  S
C2106      C2107   1.422       .  A
C2107      C2108   1.409       .  A
C2107     Br2114   1.941       .  S
C2108      C2109   1.413       .  A
C2108     Br2113   1.937       .  S
C2109      C2110   1.415       .  A
C2110     Br2111   1.929       .  S
C2115      C2116   1.412       .  A
C2115      C2120   1.411       .  A
C2115     Br2122   1.927       .  S
C2116      C2117   1.401       .  A
C2117      C2118   1.400       .  A
C2117     Br2124   1.932       .  S
C2118      C2119   1.408       .  A
C2118     Br2123   1.908       .  S
C2119      C2120   1.409       .  A
C2120     Br2121   1.928       .  S
C2125      C2126   1.420       .  A
C2125      C2130   1.409       .  A
C2125     Br2132   1.934       .  S
C2126      C2127   1.409       .  A
C2127      C2128   1.410       .  A
C2127     Br2134   1.932       .  S
C2128      C2129   1.416       .  A
C2128     Br2133   1.933       .  S
C2129      C2130   1.408       .  A
C2130     Br2131   1.934       .  S
C2135      C2136   1.418       .  A
C2135      C2140   1.401       .  A
C2135     Br2142   1.936   1_554  S
C2136      C2137   1.414       .  A
C2137      C2138   1.411       .  A
C2137     Br2144   1.930       .  S
C2138      C2139   1.410       .  A
C2138     Br2143   1.929       .  S
C2139      C2140   1.401       .  A
C2140     Br2141   1.927   1_554  S
C2145      C2146   1.413       .  A
C2145      C2150   1.412       .  A
C2145     Br2152   1.935       .  S
C2146      C2147   1.417       .  A
C2147      C2148   1.407       .  A
C2147     Br2154   1.920       .  S
C2148      C2149   1.407       .  A
C2148     Br2153   1.935       .  S
C2149      C2150   1.420       .  A
C2150     Br2151   1.934       .  S
C2155      C2156   1.414       .  A
C2155      C2160   1.405       .  A
C2155     Br2162   1.928       .  S
C2156      C2157   1.416       .  A
C2157      C2158   1.410       .  A
C2157     Br2164   1.936       .  S
C2158      C2159   1.414       .  A
C2158     Br2163   1.932       .  S
C2159      C2160   1.411       .  A
C2160     Br2161   1.937       .  S
C2165      C2166   1.415       .  A
C2165      C2170   1.408       .  A
C2165     Br2172   1.926       .  S
C2166      C2167   1.408       .  A
C2167      C2168   1.411       .  A
C2167     Br2174   1.931       .  S
C2168      C2169   1.418       .  A
C2168     Br2173   1.930       .  S
C2169      C2170   1.408       .  A
C2170     Br2171   1.929       .  S
C2175      C2176   1.416       .  A
C2175      C2180   1.411       .  A
C2175     Br2182   1.937       .  S
C2176      C2177   1.410       .  A
C2177      C2178   1.402       .  A
C2177     Br2184   1.937       .  S
C2178      C2179   1.417       .  A
C2178     Br2183   1.934       .  S
C2179      C2180   1.420       .  A
C2180     Br2181   1.937       .  S
C2185      C2186   1.421       .  A
C2185      C2190   1.408       .  A
C2185     Br2192   1.935       .  S
C2186      C2187   1.408       .  A
C2187      C2188   1.406       .  A
C2187     Br2194   1.934       .  S
C2188      C2189   1.416       .  A
C2188     Br2193   1.933       .  S
C2189      C2190   1.406       .  A
C2190     Br2191   1.933       .  S
C2195      C2196   1.422       .  A
C2195      C2200   1.408       .  A
C2195     Br2202   1.934   1_554  S
C2196      C2197   1.421       .  A
C2197      C2198   1.405       .  A
C2197     Br2204   1.932       .  S
C2198      C2199   1.404       .  A
C2198     Br2203   1.935       .  S
C2199      C2200   1.404       .  A
C2200     Br2201   1.932       .  S
C2205      C2206   1.414       .  A
C2205      C2210   1.408       .  A
C2205     Br2212   1.935       .  S
C2206      C2207   1.411       .  A
C2207      C2208   1.409       .  A
C2207     Br2214   1.932       .  S
C2208      C2209   1.412       .  A
C2208     Br2213   1.929       .  S
C2209      C2210   1.412       .  A
C2210     Br2211   1.933       .  S
C2215      C2216   1.406       .  A
C2215      C2220   1.408       .  A
C2215     Br2222   1.931   1_554  S
C2216      C2217   1.414       .  A
C2217      C2218   1.412       .  A
C2217     Br2224   1.925       .  S
C2218      C2219   1.408       .  A
C2218     Br2223   1.930       .  S
C2219      C2220   1.412       .  A
C2220     Br2221   1.924   1_554  S
C2225      C2226   1.416       .  A
C2225      C2230   1.408       .  A
C2225     Br2232   1.934       .  S
C2226      C2227   1.412       .  A
C2227      C2228   1.408       .  A
C2227     Br2234   1.932       .  S
C2228      C2229   1.411       .  A
C2228     Br2233   1.931       .  S
C2229      C2230   1.410       .  A
C2230     Br2231   1.933       .  S
C2235      C2236   1.411       .  A
C2235      C2240   1.407       .  A
C2235     Br2242   1.934       .  S
C2236      C2237   1.414       .  A
C2237      C2238   1.408       .  A
C2237     Br2244   1.934       .  S
C2238      C2239   1.414       .  A
C2238     Br2243   1.934       .  S
C2239      C2240   1.416       .  A
C2240     Br2241   1.936       .  S
C2245      C2246   1.421       .  A
C2245      C2250   1.411       .  A
C2245     Br2252   1.931       .  S
C2246      C2247   1.422       .  A
C2247      C2248   1.412       .  A
C2247     Br2254   1.934       .  S
C2248      C2249   1.408       .  A
C2248     Br2253   1.932       .  S
C2249      C2250   1.407       .  A
C2250     Br2251   1.935       .  S
C2255      C2256   1.416       .  A
C2255      C2260   1.402       .  A
C2255     Br2262   1.933       .  S
C2256      C2257   1.412       .  A
C2257      C2258   1.412       .  A
C2257     Br2264   1.929       .  S
C2258      C2259   1.411       .  A
C2258     Br2263   1.929       .  S
C2259      C2260   1.402       .  A
C2260     Br2261   1.931       .  S
C2265      C2266   1.408       .  A
C2265      C2270   1.411       .  A
C2265     Br2272   1.930       .  S
C2266      C2267   1.416   1_556  A
C2267      C2268   1.410       .  A
C2267     Br2274   1.931       .  S
C2268      C2269   1.409       .  A
C2268     Br2273   1.928       .  S
C2269      C2270   1.417   1_554  A
C2270     Br2271   1.930       .  S
C2275      C2276   1.413       .  A
C2275      C2280   1.400       .  A
C2275     Br2282   1.936       .  S
C2276      C2277   1.415       .  A
C2277      C2278   1.411       .  A
C2277     Br2284   1.931       .  S
C2278      C2279   1.412       .  A
C2278     Br2283   1.931       .  S
C2279      C2280   1.409       .  A
C2280     Br2281   1.929       .  S
C2285      C2286   1.409       .  A
C2285      C2290   1.410       .  A
C2285     Br2292   1.931       .  S
C2286      C2287   1.419       .  A
C2287      C2288   1.413       .  A
C2287     Br2294   1.933       .  S
C2288      C2289   1.413       .  A
C2288     Br2293   1.933       .  S
C2289      C2290   1.419       .  A
C2290     Br2291   1.930       .  S
C2295      C2296   1.415       .  A
C2295      C2300   1.411       .  A
C2295     Br2302   1.930       .  S
C2296      C2297   1.409       .  A
C2297      C2298   1.400       .  A
C2297     Br2304   1.932       .  S
C2298      C2299   1.409       .  A
C2298     Br2303   1.935       .  S
C2299      C2300   1.407       .  A
C2300     Br2301   1.928       .  S
C2305      C2306   1.406       .  A
C2305      C2310   1.406       .  A
C2305     Br2312   1.932       .  S
C2306      C2307   1.416       .  A
C2307      C2308   1.406       .  A
C2307     Br2314   1.932       .  S
C2308      C2309   1.408       .  A
C2308     Br2313   1.933       .  S
C2309      C2310   1.418       .  A
C2310     Br2311   1.935       .  S
C2315      C2316   1.409       .  A
C2315      C2320   1.406       .  A
C2315     Br2322   1.935       .  S
C2316      C2317   1.419       .  A
C2317      C2318   1.407       .  A
C2317     Br2324   1.937       .  S
C2318      C2319   1.409       .  A
C2318     Br2323   1.934       .  S
C2319      C2320   1.418       .  A
C2320     Br2321   1.936       .  S
C2325      C2326   1.418       .  A
C2325      C2330   1.411       .  A
C2325     Br2332   1.933       .  S
C2326      C2327   1.407       .  A
C2327      C2328   1.410       .  A
C2327     Br2334   1.930       .  S
C2328      C2329   1.418       .  A
C2328     Br2333   1.933       .  S
C2329      C2330   1.409       .  A
C2330     Br2331   1.932       .  S
C2335      C2336   1.418       .  A
C2335      C2340   1.405       .  A
C2335     Br2342   1.934       .  S
C2336      C2337   1.413       .  A
C2337      C2338   1.412       .  A
C2337     Br2344   1.929       .  S
C2338      C2339   1.410       .  A
C2338     Br2343   1.930       .  S
C2339      C2340   1.404       .  A
C2340     Br2341   1.931       .  S
C2345      C2346   1.417       .  A
C2345      C2350   1.417       .  A
C2345     Br2352   1.931       .  S
C2346      C2347   1.418       .  A
C2347      C2348   1.405       .  A
C2347     Br2354   1.937       .  S
C2348      C2349   1.408       .  A
C2348     Br2353   1.935       .  S
C2349      C2350   1.411       .  A
C2350     Br2351   1.929       .  S
C2355      C2356   1.411       .  A
C2355      C2360   1.405   1_554  A
C2355     Br2362   1.932       .  S
C2356      C2357   1.409       .  A
C2357      C2358   1.406   1_554  A
C2357     Br2364   1.933       .  S
C2358      C2359   1.415       .  A
C2358     Br2363   1.935       .  S
C2359      C2360   1.410       .  A
C2360     Br2361   1.932       .  S
C2365      C2366   1.415       .  A
C2365      C2370   1.407       .  A
C2365     Br2372   1.935       .  S
C2366      C2367   1.412       .  A
C2367      C2368   1.407       .  A
C2367     Br2374   1.933       .  S
C2368      C2369   1.412       .  A
C2368     Br2373   1.932       .  S
C2369      C2370   1.412       .  A
C2370     Br2371   1.934       .  S
C2375      C2376   1.417       .  A
C2375      C2380   1.406       .  A
C2375     Br2382   1.934       .  S
C2376      C2377   1.415       .  A
C2377      C2378   1.414       .  A
C2377     Br2384   1.930       .  S
C2378      C2379   1.412       .  A
C2378     Br2383   1.929       .  S
C2379      C2380   1.405       .  A
C2380     Br2381   1.932       .  S
C2385      C2386   1.412       .  A
C2385      C2390   1.410       .  A
C2385     Br2392   1.931       .  S
C2386      C2387   1.415       .  A
C2387      C2388   1.404       .  A
C2387     Br2394   1.936       .  S
C2388      C2389   1.409       .  A
C2388     Br2393   1.934       .  S
C2389      C2390   1.411       .  A
C2390     Br2391   1.929       .  S
C2395      C2396   1.412       .  A
C2395      C2400   1.407       .  A
C2395     Br2402   1.932       .  S
C2396      C2397   1.410       .  A
C2397      C2398   1.408       .  A
C2397     Br2404   1.932       .  S
C2398      C2399   1.415       .  A
C2398     Br2403   1.934       .  S
C2399      C2400   1.412       .  A
C2400     Br2401   1.934       .  S
C2405      C2406   1.414       .  A
C2405      C2410   1.407       .  A
C2405     Br2412   1.936       .  S
C2406      C2407   1.412       .  A
C2407      C2408   1.411       .  A
C2407     Br2414   1.930       .  S
C2408      C2409   1.412       .  A
C2408     Br2413   1.929       .  S
C2409      C2410   1.415       .  A
C2410     Br2411   1.937       .  S
C2415      C2416   1.413   1_565  A
C2415      C2420   1.409       .  A
C2415     Br2422   1.932       .  S
C2416      C2417   1.409       .  A
C2417      C2418   1.406       .  A
C2417     Br2424   1.932       .  S
C2418      C2419   1.414   1_545  A
C2418     Br2423   1.934       .  S
C2419      C2420   1.411       .  A
C2420     Br2421   1.932       .  S
C2425      C2426   1.410       .  A
C2425      C2430   1.409       .  A
C2425     Br2432   1.933       .  S
C2426      C2427   1.413   1_545  A
C2427      C2428   1.405       .  A
C2427     Br2434   1.933       .  S
C2428      C2429   1.409   1_565  A
C2428     Br2433   1.933       .  S
C2429      C2430   1.415       .  A
C2430     Br2431   1.934       .  S
C2435      C2436   1.414       .  A
C2435      C2440   1.405       .  A
C2435     Br2442   1.934       .  S
C2436      C2437   1.415       .  A
C2437      C2438   1.409       .  A
C2437     Br2444   1.933       .  S
C2438      C2439   1.410       .  A
C2438     Br2443   1.932       .  S
C2439      C2440   1.409       .  A
C2440     Br2441   1.934       .  S
C2445      C2446   1.417   1_565  A
C2445      C2450   1.413       .  A
C2445     Br2452   1.928       .  S
C2446      C2447   1.414       .  A
C2447      C2448   1.414       .  A
C2447     Br2454   1.929       .  S
C2448      C2449   1.420       .  A
C2448     Br2453   1.935       .  S
C2449      C2450   1.412   1_545  A
C2450     Br2451   1.932       .  S
C2455      C2456   1.414       .  A
C2455      C2460   1.413       .  A
C2455     Br2462   1.930       .  S
C2456      C2457   1.418       .  A
C2457      C2458   1.402       .  A
C2457     Br2464   1.931       .  S
C2458      C2459   1.406       .  A
C2458     Br2463   1.935       .  S
C2459      C2460   1.412       .  A
C2460     Br2461   1.929       .  S
C2465      C2466   1.413       .  A
C2465      C2470   1.409       .  A
C2465     Br2472   1.926       .  S
C2466      C2467   1.413       .  A
C2467      C2468   1.405       .  A
C2467     Br2474   1.934       .  S
C2468      C2469   1.411       .  A
C2468     Br2473   1.935       .  S
C2469      C2470   1.410       .  A
C2470     Br2471   1.930       .  S
C2475      C2476   1.416       .  A
C2475      C2480   1.405       .  A
C2475     Br2482   1.935       .  S
C2476      C2477   1.416   1_565  A
C2477      C2478   1.410       .  A
C2477     Br2484   1.928       .  S
C2478      C2479   1.408       .  A
C2478     Br2483   1.931       .  S
C2479      C2480   1.406   1_545  A
C2480     Br2481   1.929       .  S
C2485      C2486   1.409       .  A
C2485      C2490   1.410       .  A
C2485     Br2492   1.928       .  S
C2486      C2487   1.417   1_565  A
C2487      C2488   1.409       .  A
C2487     Br2494   1.933       .  S
C2488      C2489   1.408       .  A
C2488     Br2493   1.928       .  S
C2489      C2490   1.417   1_545  A
C2490     Br2491   1.929       .  S
C2495      C2496   1.407       .  A
C2495      C2500   1.406       .  A
C2495     Br2502   1.932       .  S
C2496      C2497   1.415       .  A
C2497      C2498   1.405       .  A
C2497     Br2504   1.935       .  S
C2498      C2499   1.408       .  A
C2498     Br2503   1.931       .  S
C2499      C2500   1.417       .  A
C2500     Br2501   1.934       .  S
C2505      C2506   1.414       .  A
C2505      C2510   1.406   1_554  A
C2505     Br2512   1.932       .  S
C2506      C2507   1.406   1_545  A
C2507      C2508   1.407   1_554  A
C2507     Br2514   1.932       .  S
C2508      C2509   1.417   1_565  A
C2508     Br2513   1.933       .  S
C2509      C2510   1.408       .  A
C2510     Br2511   1.933       .  S
C2515      C2516   1.425       .  A
C2515      C2520   1.410       .  A
C2515     Br2522   1.943       .  S
C2516      C2517   1.420   1_545  A
C2517      C2518   1.407       .  A
C2517     Br2524   1.941       .  S
C2518      C2519   1.417       .  A
C2518     Br2523   1.940       .  S
C2519      C2520   1.418   1_565  A
C2520     Br2521   1.941       .  S
C2525      C2526   1.415       .  A
C2525      C2530   1.411       .  A
C2525     Br2532   1.928       .  S
C2526      C2527   1.414       .  A
C2527      C2528   1.404       .  A
C2527     Br2534   1.935       .  S
C2528      C2529   1.409       .  A
C2528     Br2533   1.934       .  S
C2529      C2530   1.411       .  A
C2530     Br2531   1.930       .  S
C2535      C2536   1.412       .  A
C2535      C2540   1.412       .  A
C2535     Br2542   1.925       .  S
C2536      C2537   1.410   1_545  A
C2537      C2538   1.407       .  A
C2537     Br2544   1.935       .  S
C2538      C2539   1.417       .  A
C2538     Br2543   1.935       .  S
C2539      C2540   1.413   1_565  A
C2540     Br2541   1.931       .  S
C2545      C2546   1.413       .  A
C2545      C2550   1.410       .  A
C2545     Br2552   1.933       .  S
C2546      C2547   1.411   1_565  A
C2547      C2548   1.407       .  A
C2547     Br2554   1.934       .  S
C2548      C2549   1.416   1_545  A
C2548     Br2553   1.935       .  S
C2549      C2550   1.416       .  A
C2550     Br2551   1.935       .  S
C2555      C2556   1.418       .  A
C2555      C2560   1.411   1_554  A
C2555     Br2562   1.934       .  S
C2556      C2557   1.403   1_545  A
C2557      C2558   1.406   1_554  A
C2557     Br2564   1.934       .  S
C2558      C2559   1.421   1_565  A
C2558     Br2563   1.932       .  S
C2559      C2560   1.412       .  A
C2560     Br2561   1.934       .  S
C2565      C2566   1.423       .  A
C2565      C2570   1.412   1_655  A
C2565     Br2572   1.933       .  S
C2566      C2567   1.408   1_565  A
C2567      C2568   1.412   1_655  A
C2567     Br2574   1.932       .  S
C2568      C2569   1.421       .  A
C2568     Br2573   1.932       .  S
C2569      C2570   1.407   1_545  A
C2570     Br2571   1.933       .  S
C2575      C2576   1.410       .  A
C2575      C2580   1.411       .  A
C2575     Br2582   1.922   1_545  S
C2576      C2577   1.407       .  A
C2577      C2578   1.410       .  A
C2577     Br2584   1.931       .  S
C2578      C2579   1.417       .  A
C2578     Br2583   1.931       .  S
C2579      C2580   1.411       .  A
C2580     Br2581   1.930   1_545  S
C2585      C2586   1.409   1_545  A
C2585      C2590   1.411   1_655  A
C2585     Br2592   1.933       .  S
C2586      C2587   1.421   1_554  A
C2587      C2588   1.409   1_655  A
C2587     Br2594   1.934       .  S
C2588      C2589   1.408   1_565  A
C2588     Br2593   1.933       .  S
C2589      C2590   1.420   1_556  A
C2590     Br2591   1.933       .  S
C2595      C2596   1.416   1_565  A
C2595      C2600   1.406       .  A
C2595     Br2602   1.936       .  S
C2596      C2597   1.412       .  A
C2597      C2598   1.408       .  A
C2597     Br2604   1.933       .  S
C2598      C2599   1.413       .  A
C2598     Br2603   1.932       .  S
C2599      C2600   1.409   1_545  A
C2600     Br2601   1.933       .  S
C2605      C2606   1.412   1_545  A
C2605      C2610   1.406       .  A
C2605     Br2612   1.933       .  S
C2606      C2607   1.408       .  A
C2607      C2608   1.405       .  A
C2607     Br2614   1.931       .  S
C2608      C2609   1.413   1_565  A
C2608     Br2613   1.934       .  S
C2609      C2610   1.412       .  A
C2610     Br2611   1.934       .  S
C2615      C2616   1.414   1_565  A
C2615      C2620   1.410       .  A
C2615     Br2622   1.928       .  S
C2616      C2617   1.416       .  A
C2617      C2618   1.402       .  A
C2617     Br2624   1.934       .  S
C2618      C2619   1.401       .  A
C2618     Br2623   1.928       .  S
C2619      C2620   1.408   1_545  A
C2620     Br2621   1.930       .  S
C2625      C2626   1.414       .  A
C2625      C2630   1.410       .  A
C2625     Br2632   1.928       .  S
C2626      C2627   1.414       .  A
C2627      C2628   1.409       .  A
C2627     Br2634   1.934       .  S
C2628      C2629   1.413       .  A
C2628     Br2633   1.934       .  S
C2629      C2630   1.411       .  A
C2630     Br2631   1.929       .  S
C2635      C2636   1.411       .  A
C2635      C2640   1.407       .  A
C2635     Br2642   1.932       .  S
C2636      C2637   1.415       .  A
C2637      C2638   1.407       .  A
C2637     Br2644   1.921       .  S
C2638      C2639   1.408       .  A
C2638     Br2643   1.936       .  S
C2639      C2640   1.414       .  A
C2640     Br2641   1.934       .  S
C2645      C2646   1.418       .  A
C2645      C2650   1.405       .  A
C2645     Br2652   1.934       .  S
C2646      C2647   1.410       .  A
C2647      C2648   1.408       .  A
C2647     Br2654   1.932       .  S
C2648      C2649   1.417       .  A
C2648     Br2653   1.935       .  S
C2649      C2650   1.405       .  A
C2650     Br2651   1.933       .  S
C2655      C2656   1.413       .  A
C2655      C2660   1.408       .  A
C2655     Br2662   1.931       .  S
C2656      C2657   1.415       .  A
C2657      C2658   1.408       .  A
C2657     Br2664   1.936       .  S
C2658      C2659   1.411       .  A
C2658     Br2663   1.928       .  S
C2659      C2660   1.413       .  A
C2660     Br2661   1.935       .  S
C2665      C2666   1.409       .  A
C2665      C2670   1.411   1_655  A
C2665     Br2672   1.932       .  S
C2666      C2667   1.418       .  A
C2667      C2668   1.412   1_655  A
C2667     Br2674   1.933       .  S
C2668      C2669   1.410       .  A
C2668     Br2673   1.930       .  S
C2669      C2670   1.418       .  A
C2670     Br2671   1.932       .  S
C2675      C2676   1.413       .  A
C2675      C2680   1.408       .  A
C2675     Br2682   1.933       .  S
C2676      C2677   1.413       .  A
C2677      C2678   1.407       .  A
C2677     Br2684   1.931       .  S
C2678      C2679   1.409       .  A
C2678     Br2683   1.934       .  S
C2679      C2680   1.412       .  A
C2680     Br2681   1.934       .  S
C2685      C2686   1.407       .  A
C2685      C2690   1.405       .  A
C2685     Br2692   1.933       .  S
C2686      C2687   1.408       .  A
C2687      C2688   1.409       .  A
C2687     Br2694   1.931       .  S
C2688      C2689   1.412       .  A
C2688     Br2693   1.925       .  S
C2689      C2690   1.415       .  A
C2690     Br2691   1.933       .  S
C2695      C2696   1.408       .  A
C2695      C2700   1.415   1_455  A
C2695     Br2702   1.931       .  S
C2696      C2697   1.420       .  A
C2697      C2698   1.409   1_455  A
C2697     Br2704   1.930       .  S
C2698      C2699   1.407       .  A
C2698     Br2703   1.934       .  S
C2699      C2700   1.421       .  A
C2700     Br2701   1.931       .  S
C2705      C2706   1.411       .  A
C2705      C2710   1.408       .  A
C2705     Br2712   1.931       .  S
C2706      C2707   1.414       .  A
C2707      C2708   1.405       .  A
C2707     Br2714   1.933       .  S
C2708      C2709   1.410       .  A
C2708     Br2713   1.933       .  S
C2709      C2710   1.411       .  A
C2710     Br2711   1.932       .  S
C2715      C2716   1.415       .  A
C2715      C2720   1.410   1_554  A
C2715     Br2722   1.933       .  S
C2716      C2717   1.412       .  A
C2717      C2718   1.409   1_554  A
C2717     Br2724   1.932       .  S
C2718      C2719   1.412       .  A
C2718     Br2723   1.932       .  S
C2719      C2720   1.409       .  A
C2720     Br2721   1.931       .  S
C2725      C2726   1.415       .  A
C2725      C2730   1.408       .  A
C2725     Br2732   1.934       .  S
C2726      C2727   1.414       .  A
C2727      C2728   1.407       .  A
C2727     Br2734   1.933       .  S
C2728      C2729   1.409       .  A
C2728     Br2733   1.933       .  S
C2729      C2730   1.410       .  A
C2730     Br2731   1.933       .  S
C2735      C2736   1.404       .  A
C2735      C2740   1.406       .  A
C2735     Br2742   1.926       .  S
C2736      C2737   1.411       .  A
C2737      C2738   1.413       .  A
C2737     Br2744   1.930       .  S
C2738      C2739   1.415       .  A
C2738     Br2743   1.929       .  S
C2739      C2740   1.415       .  A
C2740     Br2741   1.933       .  S
C2745      C2746   1.409       .  A
C2745      C2750   1.411       .  A
C2745     Br2752   1.929       .  S
C2746      C2747   1.405       .  A
C2747      C2748   1.403       .  A
C2747     Br2754   1.932       .  S
C2748      C2749   1.414       .  A
C2748     Br2753   1.935       .  S
C2749      C2750   1.413       .  A
C2750     Br2751   1.929       .  S
C2755      C2756   1.412       .  A
C2755      C2760   1.402       .  A
C2755     Br2762   1.929       .  S
C2756      C2757   1.415       .  A
C2757      C2758   1.411       .  A
C2757     Br2764   1.913       .  S
C2758      C2759   1.406       .  A
C2758     Br2763   1.932       .  S
C2759      C2760   1.408       .  A
C2760     Br2761   1.934       .  S
C2765      C2766   1.411       .  A
C2765      C2770   1.411       .  A
C2765     Br2772   1.935       .  S
C2766      C2767   1.418       .  A
C2767      C2768   1.411       .  A
C2767     Br2774   1.938       .  S
C2768      C2769   1.417       .  A
C2768     Br2773   1.936       .  S
C2769      C2770   1.424       .  A
C2770     Br2771   1.939       .  S
C2775      C2776   1.415       .  A
C2775      C2780   1.407       .  A
C2775     Br2782   1.932       .  S
C2776      C2777   1.415       .  A
C2777      C2778   1.409       .  A
C2777     Br2784   1.932       .  S
C2778      C2779   1.409       .  A
C2778     Br2783   1.928       .  S
C2779      C2780   1.407       .  A
C2780     Br2781   1.933       .  S
C2785      C2786   1.409       .  A
C2785      C2790   1.409   1_655  A
C2785     Br2792   1.933       .  S
C2786      C2787   1.419       .  A
C2787      C2788   1.409   1_655  A
C2787     Br2794   1.935       .  S
C2788      C2789   1.408       .  A
C2788     Br2793   1.933       .  S
C2789      C2790   1.419       .  A
C2790     Br2791   1.934       .  S
C2795      C2796   1.410       .  A
C2795      C2800   1.408       .  A
C2795     Br2802   1.930       .  S
C2796      C2797   1.410       .  A
C2797      C2798   1.403       .  A
C2797     Br2804   1.936       .  S
C2798      C2799   1.414       .  A
C2798     Br2803   1.935       .  S
C2799      C2800   1.412       .  A
C2800     Br2801   1.931       .  S
C2805      C2806   1.417       .  A
C2805      C2810   1.412       .  A
C2805     Br2812   1.933       .  S
C2806      C2807   1.409       .  A
C2807      C2808   1.412       .  A
C2807     Br2814   1.930       .  S
C2808      C2809   1.416       .  A
C2808     Br2813   1.923       .  S
C2809      C2810   1.411       .  A
C2810     Br2811   1.932       .  S
C2815      C2816   1.410       .  A
C2815      C2820   1.414   1_655  A
C2815     Br2822   1.932       .  S
C2816      C2817   1.423       .  A
C2817      C2818   1.411   1_655  A
C2817     Br2824   1.933       .  S
C2818      C2819   1.407       .  A
C2818     Br2823   1.933       .  S
C2819      C2820   1.420       .  A
C2820     Br2821   1.932       .  S
C2825      C2826   1.422       .  A
C2825      C2830   1.410       .  A
C2825     Br2832   1.935       .  S
C2826      C2827   1.409       .  A
C2827      C2828   1.407       .  A
C2827     Br2834   1.929   1_554  S
C2828      C2829   1.413       .  A
C2828     Br2833   1.933   1_554  S
C2829      C2830   1.406       .  A
C2830     Br2831   1.932       .  S
C2835      C2836   1.409       .  A
C2835      C2840   1.410       .  A
C2835     Br2842   1.931       .  S
C2836      C2837   1.412       .  A
C2837      C2838   1.408       .  A
C2837     Br2844   1.914       .  S
C2838      C2839   1.405       .  A
C2838     Br2843   1.932       .  S
C2839      C2840   1.412       .  A
C2840     Br2841   1.927       .  S
C2845      C2846   1.414       .  A
C2845      C2850   1.409       .  A
C2845     Br2852   1.932       .  S
C2846      C2847   1.415       .  A
C2847      C2848   1.408       .  A
C2847     Br2854   1.933       .  S
C2848      C2849   1.411       .  A
C2848     Br2853   1.933       .  S
C2849      C2850   1.414       .  A
C2850     Br2851   1.936       .  S
C2855      C2856   1.412       .  A
C2855      C2860   1.406       .  A
C2855     Br2862   1.935   1_556  S
C2856      C2857   1.415       .  A
C2857      C2858   1.412       .  A
C2857     Br2864   1.930       .  S
C2858      C2859   1.411       .  A
C2858     Br2863   1.927       .  S
C2859      C2860   1.417       .  A
C2860     Br2861   1.936   1_556  S
C2865      C2866   1.409       .  A
C2865      C2870   1.402       .  A
C2865     Br2872   1.932       .  S
C2866      C2867   1.420       .  A
C2867      C2868   1.403       .  A
C2867     Br2874   1.934       .  S
C2868      C2869   1.403       .  A
C2868     Br2873   1.935       .  S
C2869      C2870   1.410       .  A
C2870     Br2871   1.934       .  S
C2875      C2876   1.407       .  A
C2875      C2880   1.406       .  A
C2875     Br2882   1.931       .  S
C2876      C2877   1.408       .  A
C2877      C2878   1.403       .  A
C2877     Br2884   1.934       .  S
C2878      C2879   1.414       .  A
C2878     Br2883   1.935       .  S
C2879      C2880   1.416       .  A
C2880     Br2881   1.933       .  S
C2885      C2886   1.415       .  A
C2885      C2890   1.399       .  A
C2885     Br2892   1.931       .  S
C2886      C2887   1.416       .  A
C2887      C2888   1.416       .  A
C2887     Br2894   1.928       .  S
C2888      C2889   1.413       .  A
C2888     Br2893   1.929       .  S
C2889      C2890   1.408       .  A
C2890     Br2891   1.938       .  S
C2895      C2896   1.410       .  A
C2895      C2900   1.406       .  A
C2895     Br2902   1.934       .  S
C2896      C2897   1.416       .  A
C2897      C2898   1.408       .  A
C2897     Br2904   1.933       .  S
C2898      C2899   1.407       .  A
C2898     Br2903   1.931       .  S
C2899      C2900   1.410       .  A
C2900     Br2901   1.921       .  S
C2905      C2906   1.416       .  A
C2905      C2910   1.406       .  A
C2905     Br2912   1.936       .  S
C2906      C2907   1.415       .  A
C2907      C2908   1.407       .  A
C2907     Br2914   1.934       .  S
C2908      C2909   1.412       .  A
C2908     Br2913   1.936       .  S
C2909      C2910   1.409       .  A
C2910     Br2911   1.934       .  S
C2915      C2916   1.416       .  A
C2915      C2920   1.411       .  A
C2915     Br2922   1.929       .  S
C2916      C2917   1.415       .  A
C2917      C2918   1.407       .  A
C2917     Br2924   1.927       .  S
C2918      C2919   1.407       .  A
C2918     Br2923   1.934       .  S
C2919      C2920   1.409       .  A
C2920     Br2921   1.932       .  S
C2925      C2926   1.412       .  A
C2925      C2930   1.416   1_655  A
C2925     Br2932   1.937       .  S
C2926      C2927   1.420       .  A
C2927      C2928   1.418   1_655  A
C2927     Br2934   1.931       .  S
C2928      C2929   1.416       .  A
C2928     Br2933   1.934       .  S
C2929      C2930   1.425       .  A
C2930     Br2931   1.932       .  S
C2935      C2936   1.413       .  A
C2935      C2940   1.402       .  A
C2935     Br2942   1.936       .  S
C2936      C2937   1.412       .  A
C2937      C2938   1.412       .  A
C2937     Br2944   1.930       .  S
C2938      C2939   1.412       .  A
C2938     Br2943   1.930       .  S
C2939      C2940   1.407       .  A
C2940     Br2941   1.930       .  S
C2945      C2946   1.417       .  A
C2945      C2950   1.404       .  A
C2945     Br2952   1.931   1_556  S
C2946      C2947   1.419       .  A
C2947      C2948   1.408       .  A
C2947     Br2954   1.933       .  S
C2948      C2949   1.406       .  A
C2948     Br2953   1.933       .  S
C2949      C2950   1.405       .  A
C2950     Br2951   1.936   1_556  S
C2955      C2956   1.412       .  A
C2955      C2960   1.412       .  A
C2955     Br2962   1.931   1_556  S
C2956      C2957   1.404       .  A
C2957      C2958   1.404       .  A
C2957     Br2964   1.930       .  S
C2958      C2959   1.417       .  A
C2958     Br2963   1.936       .  S
C2959      C2960   1.414       .  A
C2960     Br2961   1.930   1_556  S
C2965      C2966   1.411       .  A
C2965      C2970   1.413   1_455  A
C2965     Br2972   1.929       .  S
C2966      C2967   1.419       .  A
C2967      C2968   1.409       .  A
C2967     Br2974   1.931       .  S
C2968      C2969   1.410   1_455  A
C2968     Br2973   1.935   1_455  S
C2969      C2970   1.419       .  A
C2970     Br2971   1.932       .  S
C2975      C2976   1.411       .  A
C2975      C2980   1.403       .  A
C2975     Br2982   1.933       .  S
C2976      C2977   1.413       .  A
C2977      C2978   1.413       .  A
C2977     Br2984   1.931       .  S
C2978      C2979   1.414       .  A
C2978     Br2983   1.930       .  S
C2979      C2980   1.413       .  A
C2980     Br2981   1.936       .  S
C2985      C2986   1.415       .  A
C2985      C2990   1.407       .  A
C2985     Br2992   1.932       .  S
C2986      C2987   1.405       .  A
C2987      C2988   1.408       .  A
C2987     Br2994   1.933       .  S
C2988      C2989   1.420       .  A
C2988     Br2993   1.934       .  S
C2989      C2990   1.410       .  A
C2990     Br2991   1.935       .  S
C2995      C2996   1.417       .  A
C2995      C3000   1.408       .  A
C2995     Br3002   1.932       .  S
C2996      C2997   1.409       .  A
C2997      C2998   1.407       .  A
C2997     Br3004   1.933       .  S
C2998      C2999   1.413       .  A
C2998     Br3003   1.932       .  S
C2999      C3000   1.406       .  A
C3000     Br3001   1.932       .  S
C3005      C3006   1.409       .  A
C3005      C3010   1.410       .  A
C3005     Br3012   1.931       .  S
C3006      C3007   1.409       .  A
C3007      C3008   1.402       .  A
C3007     Br3014   1.934       .  S
C3008      C3009   1.411       .  A
C3008     Br3013   1.934       .  S
C3009      C3010   1.416       .  A
C3010     Br3011   1.932       .  S
C3015      C3016   1.412       .  A
C3015      C3020   1.414       .  A
C3015     Br3022   1.931       .  S
C3016      C3017   1.404       .  A
C3017      C3018   1.404       .  A
C3017     Br3024   1.930       .  S
C3018      C3019   1.416       .  A
C3018     Br3023   1.932       .  S
C3019      C3020   1.413       .  A
C3020     Br3021   1.927       .  S
C3025      C3026   1.407       .  A
C3025      C3030   1.407       .  A
C3025     Br3032   1.932       .  S
C3026      C3027   1.419       .  A
C3027      C3028   1.410       .  A
C3027     Br3034   1.933       .  S
C3028      C3029   1.410       .  A
C3028     Br3033   1.935       .  S
C3029      C3030   1.417       .  A
C3030     Br3031   1.924       .  S
C3035      C3036   1.405       .  A
C3035      C3040   1.411       .  A
C3035     Br3042   1.933       .  S
C3036      C3037   1.417       .  A
C3037      C3038   1.411       .  A
C3037     Br3044   1.932       .  S
C3038      C3039   1.410       .  A
C3038     Br3043   1.932       .  S
C3039      C3040   1.424       .  A
C3040     Br3041   1.934       .  S
C3045      C3046   1.419       .  A
C3045      C3050   1.407       .  A
C3045     Br3052   1.935       .  S
C3046      C3047   1.406       .  A
C3047      C3048   1.407       .  A
C3047     Br3054   1.933       .  S
C3048      C3049   1.419       .  A
C3048     Br3053   1.933       .  S
C3049      C3050   1.406       .  A
C3050     Br3051   1.934       .  S
C3055      C3056   1.415       .  A
C3055      C3060   1.405       .  A
C3055     Br3062   1.934       .  S
C3056      C3057   1.413       .  A
C3057      C3058   1.406       .  A
C3057     Br3064   1.933       .  S
C3058      C3059   1.411       .  A
C3058     Br3063   1.935       .  S
C3059      C3060   1.408       .  A
C3060     Br3061   1.934       .  S
C3065      C3066   1.404       .  A
C3065      C3070   1.410       .  A
C3065     Br3072   1.930       .  S
C3066      C3067   1.415       .  A
C3067      C3068   1.409       .  A
C3067     Br3074   1.932       .  S
C3068      C3069   1.414       .  A
C3068     Br3073   1.933       .  S
C3069      C3070   1.422       .  A
C3070     Br3071   1.926       .  S
C3075      C3076   1.411       .  A
C3075      C3080   1.407       .  A
C3075     Br3082   1.929       .  S
C3076      C3077   1.415       .  A
C3077      C3078   1.401       .  A
C3077     Br3084   1.934       .  S
C3078      C3079   1.402       .  A
C3078     Br3083   1.931       .  S
C3079      C3080   1.409       .  A
C3080     Br3081   1.930       .  S
C3085      C3086   1.422       .  A
C3085      C3090   1.413       .  A
C3085     Br3092   1.933       .  S
C3086      C3087   1.409       .  A
C3087      C3088   1.413       .  A
C3087     Br3094   1.932       .  S
C3088      C3089   1.420       .  A
C3088     Br3093   1.932       .  S
C3089      C3090   1.408       .  A
C3090     Br3091   1.933       .  S
C3095      C3096   1.420       .  A
C3095      C3100   1.411       .  A
C3095     Br3102   1.934       .  S
C3096      C3097   1.405       .  A
C3097      C3098   1.405       .  A
C3097     Br3104   1.933       .  S
C3098      C3099   1.418       .  A
C3098     Br3103   1.933       .  S
C3099      C3100   1.408       .  A
C3100     Br3101   1.933       .  S
C3105      C3106   1.408       .  A
C3105      C3110   1.406       .  A
C3105     Br3112   1.931       .  S
C3106      C3107   1.412       .  A
C3107      C3108   1.405       .  A
C3107     Br3114   1.931       .  S
C3108      C3109   1.407       .  A
C3108     Br3113   1.932       .  S
C3109      C3110   1.413       .  A
C3110     Br3111   1.933       .  S
C3115      C3116   1.405       .  A
C3115      C3120   1.405       .  A
C3115     Br3122   1.929       .  S
C3116      C3117   1.411       .  A
C3117      C3118   1.412       .  A
C3117     Br3124   1.929       .  S
C3118      C3119   1.412       .  A
C3118     Br3123   1.928   1_554  S
C3119      C3120   1.415       .  A
C3120     Br3121   1.934       .  S
C3125      C3126   1.419   1_565  A
C3125      C3130   1.413       .  A
C3125     Br3132   1.931       .  S
C3126      C3127   1.410       .  A
C3127      C3128   1.411       .  A
C3127     Br3134   1.935       .  S
C3128      C3129   1.419       .  A
C3128     Br3133   1.921       .  S
C3129      C3130   1.414   1_545  A
C3130     Br3131   1.935       .  S
C3135      C3136   1.412       .  A
C3135      C3140   1.404       .  A
C3135     Br3142   1.935       .  S
C3136      C3137   1.412       .  A
C3137      C3138   1.406       .  A
C3137     Br3144   1.934       .  S
C3138      C3139   1.413       .  A
C3138     Br3143   1.936       .  S
C3139      C3140   1.409       .  A
C3140     Br3141   1.930       .  S
C3145      C3146   1.408       .  A
C3145      C3150   1.412       .  A
C3145     Br3152   1.931       .  S
C3146      C3147   1.421   1_565  A
C3147      C3148   1.413       .  A
C3147     Br3154   1.928       .  S
C3148      C3149   1.410       .  A
C3148     Br3153   1.933       .  S
C3149      C3150   1.420   1_545  A
C3150     Br3151   1.931       .  S
C3155      C3156   1.409   1_545  A
C3155      C3160   1.408       .  A
C3155     Br3162   1.935       .  S
C3156      C3157   1.420       .  A
C3157      C3158   1.407       .  A
C3157     Br3164   1.937       .  S
C3158      C3159   1.409   1_565  A
C3158     Br3163   1.935       .  S
C3159      C3160   1.417       .  A
C3160     Br3161   1.933       .  S
C3165      C3166   1.421   1_565  A
C3165      C3170   1.408       .  A
C3165     Br3172   1.936       .  S
C3166      C3167   1.409       .  A
C3167      C3168   1.408       .  A
C3167     Br3174   1.934       .  S
C3168      C3169   1.417       .  A
C3168     Br3173   1.934       .  S
C3169      C3170   1.408   1_545  A
C3170     Br3171   1.935       .  S
C3175      C3176   1.412       .  A
C3175      C3180   1.407       .  A
C3175     Br3182   1.931       .  S
C3176      C3177   1.415       .  A
C3177      C3178   1.411       .  A
C3177     Br3184   1.933       .  S
C3178      C3179   1.413       .  A
C3178     Br3183   1.933       .  S
C3179      C3180   1.411       .  A
C3180     Br3181   1.929       .  S
C3185      C3186   1.416   1_545  A
C3185      C3190   1.412       .  A
C3185     Br3192   1.937       .  S
C3186      C3187   1.421       .  A
C3187      C3188   1.412       .  A
C3187     Br3194   1.924       .  S
C3188      C3189   1.408       .  A
C3188     Br3193   1.932       .  S
C3189      C3190   1.417   1_565  A
C3190     Br3191   1.931       .  S
C3195      C3196   1.410       .  A
C3195      C3200   1.409       .  A
C3195     Br3202   1.934       .  S
C3196      C3197   1.408       .  A
C3197      C3198   1.408       .  A
C3197     Br3204   1.932       .  S
C3198      C3199   1.417       .  A
C3198     Br3203   1.933       .  S
C3199      C3200   1.416       .  A
C3200     Br3201   1.933       .  S
C3205      C3206   1.408       .  A
C3205      C3210   1.407   1_545  A
C3205     Br3212   1.927       .  S
C3206      C3207   1.409       .  A
C3207      C3208   1.407       .  A
C3207     Br3214   1.932   1_554  S
C3208      C3209   1.410   1_545  A
C3208     Br3213   1.923   1_554  S
C3209      C3210   1.408       .  A
C3210     Br3211   1.928       .  S
C3215      C3216   1.420       .  A
C3215      C3220   1.405       .  A
C3215     Br3222   1.936       .  S
C3216      C3217   1.423   1_545  A
C3217      C3218   1.416       .  A
C3217     Br3224   1.939       .  S
C3218      C3219   1.421       .  A
C3218     Br3223   1.937       .  S
C3219      C3220   1.404   1_565  A
C3220     Br3221   1.921       .  S
C3225      C3226   1.415   1_545  A
C3225      C3230   1.409       .  A
C3225     Br3232   1.936       .  S
C3226      C3227   1.415       .  A
C3227      C3228   1.404       .  A
C3227     Br3234   1.937       .  S
C3228      C3229   1.415   1_565  A
C3228     Br3233   1.933       .  S
C3229      C3230   1.417       .  A
C3230     Br3231   1.937       .  S
C3235      C3236   1.424       .  A
C3235      C3240   1.408       .  A
C3235     Br3242   1.938       .  S
C3236      C3237   1.411   1_565  A
C3237      C3238   1.410       .  A
C3237     Br3244   1.937       .  S
C3238      C3239   1.418       .  A
C3238     Br3243   1.929       .  S
C3239      C3240   1.408   1_545  A
C3240     Br3241   1.936       .  S
C3245      C3246   1.412       .  A
C3245      C3250   1.409       .  A
C3245     Br3252   1.934       .  S
C3246      C3247   1.412       .  A
C3247      C3248   1.407       .  A
C3247     Br3254   1.934       .  S
C3248      C3249   1.412       .  A
C3248     Br3253   1.932       .  S
C3249      C3250   1.413       .  A
C3250     Br3251   1.927       .  S
C3255      C3256   1.404   1_565  A
C3255      C3260   1.405       .  A
C3255     Br3262   1.930       .  S
C3256      C3257   1.411       .  A
C3257      C3258   1.411       .  A
C3257     Br3264   1.928       .  S
C3258      C3259   1.409       .  A
C3258     Br3263   1.926       .  S
C3259      C3260   1.414   1_545  A
C3260     Br3261   1.929       .  S
C3265      C3266   1.410       .  A
C3265      C3270   1.407       .  A
C3265     Br3272   1.930       .  S
C3266      C3267   1.418       .  A
C3267      C3268   1.405       .  A
C3267     Br3274   1.934       .  S
C3268      C3269   1.405       .  A
C3268     Br3273   1.929       .  S
C3269      C3270   1.418       .  A
C3270     Br3271   1.935       .  S
C3275      C3276   1.411       .  A
C3275      C3280   1.409       .  A
C3275     Br3282   1.932       .  S
C3276      C3277   1.412       .  A
C3277      C3278   1.403       .  A
C3277     Br3284   1.933       .  S
C3278      C3279   1.414       .  A
C3278     Br3283   1.938       .  S
C3279      C3280   1.415       .  A
C3280     Br3281   1.932       .  S
C3285      C3286   1.419       .  A
C3285      C3290   1.414       .  A
C3285     Br3292   1.929       .  S
C3286      C3287   1.410       .  A
C3287      C3288   1.411       .  A
C3287     Br3294   1.929       .  S
C3288      C3289   1.418       .  A
C3288     Br3293   1.933       .  S
C3289      C3290   1.411       .  A
C3290     Br3291   1.933       .  S
C3295      C3296   1.415       .  A
C3295      C3300   1.400       .  A
C3295     Br3302   1.933       .  S
C3296      C3297   1.415       .  A
C3297      C3298   1.411       .  A
C3297     Br3304   1.931       .  S
C3298      C3299   1.412       .  A
C3298     Br3303   1.932       .  S
C3299      C3300   1.406       .  A
C3300     Br3301   1.936       .  S
C3305      C3306   1.407       .  A
C3305      C3310   1.406   1_556  A
C3305     Br3312   1.934       .  S
C3306      C3307   1.419       .  A
C3307      C3308   1.406   1_556  A
C3307     Br3314   1.939       .  S
C3308      C3309   1.410       .  A
C3308     Br3313   1.935       .  S
C3309      C3310   1.419       .  A
C3310     Br3311   1.935       .  S
C3315      C3316   1.407       .  A
C3315      C3320   1.407       .  A
C3315     Br3322   1.933       .  S
C3316      C3317   1.417       .  A
C3317      C3318   1.409       .  A
C3317     Br3324   1.934       .  S
C3318      C3319   1.410       .  A
C3318     Br3323   1.934       .  S
C3319      C3320   1.417       .  A
C3320     Br3321   1.933       .  S
C3325      C3326   1.421       .  A
C3325      C3330   1.407   1_554  A
C3325     Br3332   1.936   1_554  S
C3326      C3327   1.411       .  A
C3327      C3328   1.412       .  A
C3327     Br3334   1.932       .  S
C3328      C3329   1.418   1_554  A
C3328     Br3333   1.931       .  S
C3329      C3330   1.406       .  A
C3330     Br3331   1.928       .  S
C3335      C3336   1.412       .  A
C3335      C3340   1.404       .  A
C3335     Br3342   1.933       .  S
C3336      C3337   1.413       .  A
C3337      C3338   1.405       .  A
C3337     Br3344   1.921       .  S
C3338      C3339   1.407       .  A
C3338     Br3343   1.935       .  S
C3339      C3340   1.409       .  A
C3340     Br3341   1.932       .  S
C3345      C3346   1.412       .  A
C3345      C3350   1.408       .  A
C3345     Br3352   1.920       .  S
C3346      C3347   1.407       .  A
C3347      C3348   1.407       .  A
C3347     Br3354   1.931       .  S
C3348      C3349   1.410       .  A
C3348     Br3353   1.922       .  S
C3349      C3350   1.406       .  A
C3350     Br3351   1.931       .  S
C3355      C3356   1.417       .  A
C3355      C3360   1.409       .  A
C3355     Br3362   1.927       .  S
C3356      C3357   1.406       .  A
C3357      C3358   1.410       .  A
C3357     Br3364   1.926       .  S
C3358      C3359   1.416       .  A
C3358     Br3363   1.930       .  S
C3359      C3360   1.406       .  A
C3360     Br3361   1.928       .  S
C3365      C3366   1.406       .  A
C3365      C3370   1.405       .  A
C3365     Br3372   1.925       .  S
C3366      C3367   1.413       .  A
C3367      C3368   1.408       .  A
C3367     Br3374   1.932       .  S
C3368      C3369   1.410       .  A
C3368     Br3373   1.930       .  S
C3369      C3370   1.416       .  A
C3370     Br3371   1.935       .  S
C3375      C3376   1.419       .  A
C3375      C3380   1.408       .  A
C3375     Br3382   1.935       .  S
C3376      C3377   1.409       .  A
C3377      C3378   1.409       .  A
C3377     Br3384   1.933       .  S
C3378      C3379   1.421       .  A
C3378     Br3383   1.938       .  S
C3379      C3380   1.410       .  A
C3380     Br3381   1.936       .  S
C3385      C3386   1.414       .  A
C3385      C3390   1.410       .  A
C3385     Br3392   1.932       .  S
C3386      C3387   1.410       .  A
C3387      C3388   1.408       .  A
C3387     Br3394   1.932       .  S
C3388      C3389   1.412       .  A
C3388     Br3393   1.931       .  S
C3389      C3390   1.409       .  A
C3390     Br3391   1.930       .  S
C3395      C3396   1.414       .  A
C3395      C3400   1.416       .  A
C3395     Br3402   1.928       .  S
C3396      C3397   1.416       .  A
C3397      C3398   1.407       .  A
C3397     Br3404   1.931       .  S
C3398      C3399   1.405       .  A
C3398     Br3403   1.929       .  S
C3399      C3400   1.413       .  A
C3400     Br3401   1.929       .  S
C3405      C3406   1.411       .  A
C3405      C3410   1.412   1_556  A
C3405     Br3412   1.934       .  S
C3406      C3407   1.423   1_556  A
C3407      C3408   1.412       .  A
C3407     Br3414   1.933       .  S
C3408      C3409   1.410       .  A
C3408     Br3413   1.934       .  S
C3409      C3410   1.421       .  A
C3410     Br3411   1.931       .  S
C3415      C3416   1.410       .  A
C3415      C3420   1.401       .  A
C3415     Br3422   1.936       .  S
C3416      C3417   1.412       .  A
C3417      C3418   1.413       .  A
C3417     Br3424   1.931       .  S
C3418      C3419   1.414       .  A
C3418     Br3423   1.929       .  S
C3419      C3420   1.410       .  A
C3420     Br3421   1.934       .  S
C3425      C3426   1.413       .  A
C3425      C3430   1.407       .  A
C3425     Br3432   1.935       .  S
C3426      C3427   1.410       .  A
C3427      C3428   1.404       .  A
C3427     Br3434   1.933       .  S
C3428      C3429   1.413       .  A
C3428     Br3433   1.931       .  S
C3429      C3430   1.413       .  A
C3430     Br3431   1.935       .  S
C3435      C3436   1.421       .  A
C3435      C3440   1.415       .  A
C3435     Br3442   1.930       .  S
C3436      C3437   1.406       .  A
C3437      C3438   1.414       .  A
C3437     Br3444   1.932       .  S
C3438      C3439   1.425       .  A
C3438     Br3443   1.931       .  S
C3439      C3440   1.409       .  A
C3440     Br3441   1.932       .  S
C3445      C3446   1.408       .  A
C3445      C3450   1.402       .  A
C3445     Br3452   1.935       .  S
C3446      C3447   1.407       .  A
C3447      C3448   1.413       .  A
C3447     Br3454   1.928       .  S
C3448      C3449   1.416       .  A
C3448     Br3453   1.930       .  S
C3449      C3450   1.413       .  A
C3450     Br3451   1.936       .  S
C3455      C3456   1.414       .  A
C3455      C3460   1.406       .  A
C3455     Br3462   1.935       .  S
C3456      C3457   1.415       .  A
C3457      C3458   1.406       .  A
C3457     Br3464   1.936       .  S
C3458      C3459   1.413       .  A
C3458     Br3463   1.936       .  S
C3459      C3460   1.412       .  A
C3460     Br3461   1.935       .  S
C3465      C3466   1.403       .  A
C3465      C3470   1.410       .  A
C3465     Br3472   1.930       .  S
C3466      C3467   1.416       .  A
C3467      C3468   1.404       .  A
C3467     Br3474   1.926       .  S
C3468      C3469   1.407       .  A
C3468     Br3473   1.936       .  S
C3469      C3470   1.418       .  A
C3470     Br3471   1.925       .  S
C3475      C3476   1.414       .  A
C3475      C3480   1.407       .  A
C3475     Br3482   1.934       .  S
C3476      C3477   1.412       .  A
C3477      C3478   1.407       .  A
C3477     Br3484   1.930       .  S
C3478      C3479   1.413       .  A
C3478     Br3483   1.936       .  S
C3479      C3480   1.410       .  A
C3480     Br3481   1.929       .  S
C3485      C3486   1.417       .  A
C3485      C3490   1.414       .  A
C3485     Br3492   1.933       .  S
C3486      C3487   1.424       .  A
C3487      C3488   1.416       .  A
C3487     Br3494   1.926       .  S
C3488      C3489   1.416       .  A
C3488     Br3493   1.940       .  S
C3489      C3490   1.420       .  A
C3490     Br3491   1.936       .  S
C3495      C3496   1.409       .  A
C3495      C3500   1.407       .  A
C3495     Br3502   1.933       .  S
C3496      C3497   1.414       .  A
C3497      C3498   1.406       .  A
C3497     Br3504   1.936       .  S
C3498      C3499   1.410       .  A
C3498     Br3503   1.930       .  S
C3499      C3500   1.418       .  A
C3500     Br3501   1.936       .  S
C3505      C3506   1.416       .  A
C3505      C3510   1.408       .  A
C3505     Br3512   1.936       .  S
C3506      C3507   1.413       .  A
C3507      C3508   1.408       .  A
C3507     Br3514   1.932       .  S
C3508      C3509   1.412       .  A
C3508     Br3513   1.933       .  S
C3509      C3510   1.411       .  A
C3510     Br3511   1.933       .  S
C3515      C3516   1.412       .  A
C3515      C3520   1.408       .  A
C3515     Br3522   1.925       .  S
C3516      C3517   1.406       .  A
C3517      C3518   1.408       .  A
C3517     Br3524   1.930       .  S
C3518      C3519   1.412       .  A
C3518     Br3523   1.927       .  S
C3519      C3520   1.406       .  A
C3520     Br3521   1.930       .  S
C3525      C3526   1.418       .  A
C3525      C3530   1.410       .  A
C3525     Br3532   1.931       .  S
C3526      C3527   1.407       .  A
C3527      C3528   1.410       .  A
C3527     Br3534   1.932       .  S
C3528      C3529   1.418       .  A
C3528     Br3533   1.930       .  S
C3529      C3530   1.407       .  A
C3530     Br3531   1.931       .  S
C3535      C3536   1.411       .  A
C3535      C3540   1.417       .  A
C3535     Br3542   1.929       .  S
C3536      C3537   1.400       .  A
C3537      C3538   1.400       .  A
C3537     Br3544   1.929       .  S
C3538      C3539   1.422       .  A
C3538     Br3543   1.935       .  S
C3539      C3540   1.421       .  A
C3540     Br3541   1.932       .  S
C3545      C3546   1.413       .  A
C3545      C3550   1.409   1_556  A
C3545     Br3552   1.935       .  S
C3546      C3547   1.416       .  A
C3547      C3548   1.409   1_556  A
C3547     Br3554   1.937       .  S
C3548      C3549   1.416       .  A
C3548     Br3553   1.936       .  S
C3549      C3550   1.416       .  A
C3550     Br3551   1.935       .  S
C3555      C3556   1.405       .  A
C3555      C3560   1.403       .  A
C3555     Br3562   1.933       .  S
C3556      C3557   1.415       .  A
C3557      C3558   1.405       .  A
C3557     Br3564   1.931       .  S
C3558      C3559   1.405       .  A
C3558     Br3563   1.931       .  S
C3559      C3560   1.416       .  A
C3560     Br3561   1.931       .  S
C3565      C3566   1.418       .  A
C3565      C3570   1.411       .  A
C3565     Br3572   1.935       .  S
C3566      C3567   1.415       .  A
C3567      C3568   1.412       .  A
C3567     Br3574   1.929       .  S
C3568      C3569   1.412       .  A
C3568     Br3573   1.932       .  S
C3569      C3570   1.411       .  A
C3570     Br3571   1.931       .  S
C3575      C3576   1.410       .  A
C3575      C3580   1.405       .  A
C3575     Br3582   1.930       .  S
C3576      C3577   1.414       .  A
C3577      C3578   1.415       .  A
C3577     Br3584   1.932       .  S
C3578      C3579   1.415       .  A
C3578     Br3583   1.928       .  S
C3579      C3580   1.419       .  A
C3580     Br3581   1.941       .  S
