geometry optimzed in LAMMPS
_audit_creation_date              2020-12-01 
_audit_creation_method            'lammps2cif' 
_symmetry_space_group_name_H-M    'P1' 
_symmetry_Int_Tables_number       1 
_symmetry_cell_setting            triclinic 
loop_ 
_symmetry_equiv_pos_as_xyz 
  x,y,z 
_cell_length_a                    41.20293072 
_cell_length_b                    41.179021864120955 
_cell_length_c                    60.893866125898285 
_cell_angle_alpha                 89.98008568713733 
_cell_angle_beta                  90.10081254301852 
_cell_angle_gamma                 119.65383181328286 
loop_ 
_atom_site_label 
_atom_site_type_symbol 
_atom_site_fract_x 
_atom_site_fract_y 
_atom_site_fract_z 
_atom_site_charge 
C1          C  0.16451671  0.33362280  0.65670410     0.45900
H2          H  0.16463555  0.33468450  0.67493030    -0.03100
C3          C  0.16398682  0.33105269  0.61394503     0.45900
H4          H  0.16347848  0.32987335  0.59569833    -0.03100
C5          C  0.14728345  0.35553629  0.64565666    -0.16800
C6          C  0.20395887  0.35006513  0.64631338    -0.16600
C7          C  0.14201434  0.29361021  0.64714589    -0.17000
C8          C  0.14740311  0.35398754  0.62311916    -0.16900
C9          C  0.20306805  0.34845754  0.62372556    -0.16500
C10         C  0.14213636  0.29289462  0.62466770    -0.16800
C11         C  0.16824303  0.33357782  0.80436283     0.45900
H12         H  0.16848386  0.33198591  0.78617227    -0.03100
C13         C  0.16661521  0.33648079  0.84705192     0.45900
H14         H  0.16583979  0.33760303  0.86528429    -0.03100
C15         C  0.20752052  0.35223601  0.81519974    -0.16800
C16         C  0.14938484  0.35548242  0.81334417    -0.16600
C17         C  0.14694582  0.29486045  0.81538270    -0.17000
C18         C  0.20599181  0.35396985  0.83776152    -0.16900
C19         C  0.14909780  0.35706320  0.83584791    -0.16500
C20         C  0.14618560  0.29683876  0.83782406    -0.16800
C21         C  0.99648454  0.00082478  0.70811598     0.45900
H22         H  0.99486033  0.00085056  0.68990486    -0.03100
C23         C  0.00053224  0.00074837  0.75100520     0.45900
H24         H  0.50204887  0.00013653  0.76910700    -0.03100
C25         C  0.01900328  0.48262902  0.71694451    -0.16800
C26         C  0.01530589  0.04012190  0.71835575    -0.16600
C27         C  0.45826922  0.47981283  0.71945238    -0.17000
C28         C  0.02026664  0.48167111  0.73953537    -0.16900
C29         C  0.01875374  0.04046809  0.74095430    -0.16500
C30         C  0.46049750  0.48015712  0.74196973    -0.16800
C31         C  0.33166355  0.16656671  0.30100899     0.45900
H32         H  0.33013955  0.16636900  0.28278793    -0.03100
C33         C  0.33525456  0.16664648  0.34373908     0.45900
H34         H  0.33728988  0.16713051  0.36193726    -0.03100
C35         C  0.29332295  0.14368976  0.31235846    -0.16800
C36         C  0.35485534  0.14960507  0.31009559    -0.16600
C37         C  0.34906939  0.20598483  0.31136236    -0.17000
C38         C  0.29542165  0.14412479  0.33494140    -0.16900
C39         C  0.35684350  0.15000033  0.33256683    -0.16500
C40         C  0.35041020  0.20548864  0.33387283    -0.16800
C41         C  0.33254167  0.17043348  0.11556512     0.45900
H42         H  0.33153764  0.17090691  0.09732259    -0.03100
C43         C  0.33416079  0.16914578  0.15831515     0.45900
H44         H  0.33472967  0.16884597  0.17654614    -0.03100
C45         C  0.29426437  0.15379303  0.12610335    -0.16800
C46         C  0.34971553  0.14790712  0.12461916    -0.16600
C47         C  0.35529833  0.20891939  0.12561901    -0.17000
C48         C  0.29450335  0.15283175  0.14856525    -0.16900
C49         C  0.35036262  0.14635377  0.14722612    -0.16500
C50         C  0.35633120  0.20870995  0.14812113    -0.16800
C51         C  0.00167217  0.00169759  0.20861135     0.45900
H52         H  0.00231149  0.00278520  0.19038569    -0.03100
C53         C  0.00070474  0.99956781  0.25161564     0.45900
H54         H  0.00011951  0.99847896  0.26984588    -0.03100
C55         C  0.47978662  0.01897739  0.21902247    -0.16800
C56         C  0.48416056  0.46190279  0.21827495    -0.16600
C57         C  0.04053573  0.02284862  0.21912307    -0.17000
C58         C  0.47877294  0.01744155  0.24160543    -0.16900
C59         C  0.48283607  0.46081581  0.24086721    -0.16500
C60         C  0.04033406  0.02070979  0.24168069    -0.16800
Zn61       Zn  0.05391067  0.03158249  0.97206933     1.49700
Zn62       Zn  0.47766041  0.45223349  0.97049257     1.49400
Zn63       Zn  0.99975295  0.00314395  0.01270351     1.49100
Zn64       Zn  0.47480726  0.02911609  0.97108379     1.49500
O65         O  0.00157437  0.00378608  0.98124428    -1.83700
O66         O  0.06603463  0.50015161  0.95212300    -0.74300
O67         O  0.45782609  0.41434154  0.99575012    -0.74200
O68         O  0.04968264  0.02990594  0.02591085    -0.73700
O69         O  0.01436100  0.44463126  0.95217515    -0.74300
O70         O  0.08918658  0.04870435  0.99802022    -0.73900
O71         O  0.47614461  0.45254342  0.02435252    -0.74500
O72         O  0.45242112  0.04466153  0.99558619    -0.73900
O73         O  0.43513512  0.44301214  0.95009930    -0.74700
O74         O  0.47107547  0.02573828  0.02449865    -0.74100
O75         O  0.43411044  0.49643093  0.95073711    -0.74500
O76         O  0.00872110  0.07453326  0.95421070    -0.74400
O77         O  0.06371738  0.07688909  0.95466360    -0.74200
C78         C  0.04777399  0.46625635  0.94581090     0.77600
C79         C  0.46020776  0.41977950  0.01647270     0.78000
C80         C  0.08277985  0.04623445  0.01857511     0.77000
C81         C  0.45365313  0.04094625  0.01625416     0.77400
C82         C  0.42145598  0.46325998  0.94373300     0.78500
C83         C  0.04285619  0.08993172  0.94862083     0.77600
Zn84       Zn  0.44652433  0.47624570  0.46877312     1.49700
Zn85       Zn  0.02300867  0.47276856  0.46753983     1.49400
Zn86       Zn  0.02666119  0.05209255  0.47008103     1.49100
Zn87       Zn  0.99830429  0.99677508  0.51037003     1.49500
O88         O  0.99841742  0.99945281  0.47882837    -1.83700
O89         O  0.43479048  0.43163942  0.44947163    -0.74300
O90         O  0.06506206  0.00576980  0.44727779    -0.74200
O91         O  0.49486928  0.06408644  0.45049349    -0.73700
O92         O  0.48726933  0.42885778  0.44966559    -0.74300
O93         O  0.43908957  0.01267296  0.44985787    -0.73900
O94         O  0.07103911  0.06193805  0.45149062    -0.74500
O95         O  0.02170031  0.04685423  0.52382239    -0.73900
O96         O  0.04543546  0.45585996  0.49178004    -0.74700
O97         O  0.04382799  0.08727377  0.49638332    -0.74100
O98         O  0.02680875  0.47376548  0.52118956    -0.74500
O99         O  0.44734432  0.46889665  0.52270584    -0.74400
O100        O  0.40962913  0.45855562  0.49439463    -0.74200
C101        C  0.45368809  0.41633399  0.44336913     0.77600
C102        C  0.08164521  0.04055737  0.44290430     0.78000
C103        C  0.46131942  0.04605699  0.44363116     0.77000
C104        C  0.03918379  0.08021570  0.51689677     0.77400
C105        C  0.04472898  0.45938803  0.51253242     0.78500
C106        C  0.41470987  0.45670459  0.51493661     0.77600
C107        C  0.17959561  0.09341380  0.04418659    -0.27200
C108        C  0.17060658  0.09134551  0.06651947     0.02400
C109        C  0.13317401  0.07498457  0.07300924     0.30500
C110        C  0.10508146  0.06074648  0.05714420    -0.19000
C111        C  0.11372486  0.06225547  0.03465526    -0.28400
C112        C  0.15148850  0.07879976  0.02825240     0.44500
C113        C  0.20070184  0.10730043  0.08286927     0.05700
O114        O  0.12399613  0.07442115  0.09472601    -0.56900
H115        H  0.07639723  0.04861933  0.06259407     0.18700
O116        O  0.16136493  0.08123692  0.00656922    -0.63600
H117        H  0.20854914  0.10621689  0.03913095     0.17100
C118        C  0.20453630  0.08453215  0.09870487     0.29400
C119        C  0.23464263  0.10022222  0.11329573    -0.24500
C120        C  0.26060180  0.13845704  0.11234544    -0.23800
C121        C  0.25625769  0.16130319  0.09684890     0.40800
C122        C  0.22644704  0.14562043  0.08214762    -0.26200
O123        O  0.18041456  0.04669303  0.09903448    -0.58100
H124        H  0.23842633  0.08236413  0.12486342     0.16400
O125        O  0.28146139  0.19880021  0.09565088    -0.59600
H126        H  0.22351480  0.16328281  0.07002688     0.14900
H127        H  0.16346128  0.55975382  0.00333017     0.46800
H128        H  0.16639034  0.04175049  0.11300083     0.42100
H129        H  0.27364214  0.21053353  0.10715918     0.45600
H130        H  0.11166946  0.04777488  0.09917082     0.37100
C131        C  0.40904623  0.27250234  0.07849194    -0.27200
C132        C  0.40006449  0.30094965  0.08060293     0.02400
C133        C  0.37802658  0.30042585  0.09839873     0.30500
C134        C  0.36447965  0.27094467  0.11351141    -0.19000
C135        C  0.37339633  0.24234623  0.11132790    -0.28400
C136        C  0.39616376  0.24351634  0.09377830     0.44500
C137        C  0.41453058  0.33122265  0.06419839     0.05700
O138        O  0.36796017  0.32745425  0.10039351    -0.56900
H139        H  0.34591490  0.26974499  0.12643802     0.18700
O140        O  0.40536724  0.21598900  0.09118744    -0.63600
H141        H  0.42629499  0.27288006  0.06496652     0.17100
C142        C  0.43991019  0.36803080  0.07043042     0.29400
C143        C  0.45452345  0.39617480  0.05463876    -0.24500
C144        C  0.44450931  0.38834254  0.03231762    -0.23800
C145        C  0.41918494  0.35125166  0.02607271     0.40800
C146        C  0.40460280  0.32296675  0.04198777    -0.26200
O147        O  0.45109200  0.37669941  0.09188991    -0.58100
H148        H  0.47410997  0.42430695  0.05999120     0.16400
O149        O  0.40835688  0.34228799  0.00460246    -0.59600
H150        H  0.38529267  0.29451025  0.03702811     0.14900
H151        H  0.43219572  0.22781911  0.09512048     0.46800
H152        H  0.97228323  0.37141644  0.09332119     0.42100
H153        H  0.38578351  0.34486921  0.00298570     0.45600
H154        H  0.38237619  0.34292755  0.11312312     0.37100
C155        C  0.41559859  0.12456421  0.09417145    -0.27200
C156        C  0.39249942  0.10307803  0.07684788     0.02400
C157        C  0.35548872  0.09570938  0.07559254     0.30500
C158        C  0.34180852  0.10976658  0.09169363    -0.19000
C159        C  0.36481128  0.13139215  0.10903704    -0.28400
C160        C  0.40210197  0.13915798  0.11013851     0.44500
C161        C  0.40667330  0.08664395  0.06084368     0.05700
O162        O  0.33221810  0.07369399  0.05914208    -0.56900
H163        H  0.31305675  0.10366034  0.09070644     0.18700
O164        O  0.42546498  0.16086565  0.12664437    -0.63600
H165        H  0.44416328  0.13013492  0.09519612     0.17100
C166        C  0.41446420  0.09967852  0.03910566     0.29400
C167        C  0.42857570  0.08371936  0.02437351    -0.24500
C168        C  0.43540988  0.05506899  0.03125324    -0.23800
C169        C  0.42658626  0.04156978  0.05301489     0.40800
C170        C  0.41237244  0.05745075  0.06758753    -0.26200
O171        O  0.40889830  0.12829308  0.03226220    -0.58100
H172        H  0.43521838  0.09452732  0.00778280     0.16400
O173        O  0.43089129  0.01227284  0.06008749    -0.59600
H174        H  0.40579104  0.04697395  0.08426098     0.14900
H175        H  0.43673768  0.18692220  0.12130529     0.46800
H176        H  0.93163959  0.15064123  0.03595372     0.42100
H177        H  0.45355211  0.52306731  0.06882278     0.45600
H178        H  0.33252128  0.09139937  0.04799634     0.37100
C179        C  0.43569638  0.30025379  0.16805918    -0.27200
C180        C  0.41628085  0.31675060  0.17751197     0.02400
C181        C  0.37701446  0.29573847  0.17914108     0.30500
C182        C  0.35776944  0.25919080  0.17098131    -0.19000
C183        C  0.37720915  0.24339745  0.16091373    -0.28400
C184        C  0.41640966  0.26383255  0.15979551     0.44500
C185        C  0.43713152  0.35567953  0.18581566     0.05700
O186        O  0.35714335  0.31096653  0.18823235    -0.56900
H187        H  0.32751581  0.24384792  0.17147641     0.18700
O188        O  0.43591514  0.24910190  0.14961938    -0.63600
H189        H  0.46581021  0.31604456  0.16651052     0.17100
C190        C  0.46599364  0.36620026  0.20131178     0.29400
C191        C  0.48305605  0.40202163  0.21042792    -0.24500
C192        C  0.47121351  0.42759475  0.20475982    -0.23800
C193        C  0.44430648  0.41808704  0.18812237     0.40800
C194        C  0.42736467  0.38225977  0.17880535    -0.26200
O195        O  0.47566278  0.34075855  0.20891272    -0.58100
H196        H  0.00449463  0.40944424  0.22255639     0.16400
O197        O  0.43245918  0.44250675  0.18195938    -0.59600
H198        H  0.40579378  0.37484924  0.16649954     0.14900
H199        H  0.43726431  0.23194454  0.16054276     0.46800
H200        H  0.00052246  0.34849956  0.20157661     0.42100
H201        H  0.44652865  0.45454071  0.16837959     0.45600
H202        H  0.35656968  0.30596380  0.20418277     0.37100
C203        C  0.46150566  0.09274787  0.19385138    -0.27200
C204        C  0.42352666  0.07141596  0.18790204     0.02400
C205        C  0.40583901  0.03209265  0.19037035     0.30500
C206        C  0.42586346  0.01526477  0.19828646    -0.19000
C207        C  0.46245263  0.03688440  0.20593173    -0.28400
C208        C  0.48056283  0.07585096  0.20330100     0.44500
C209        C  0.40287094  0.09001173  0.17882831     0.05700
O210        O  0.36845354  0.00973686  0.18620004    -0.56900
H211        H  0.41165458  0.98521301  0.20010074     0.18700
O212        O  0.01654191  0.09785818  0.21043135    -0.63600
H213        H  0.47655013  0.12267451  0.19138315     0.17100
C214        C  0.40806374  0.12441001  0.18714730     0.29400
C215        C  0.38965726  0.14182094  0.17732544    -0.24500
C216        C  0.36509385  0.12504699  0.15962960    -0.23800
C217        C  0.35709176  0.08908976  0.15288402     0.40800
C218        C  0.37723625  0.07297822  0.16154723    -0.26200
O219        O  0.43013726  0.14069909  0.20523797    -0.58100
H220        H  0.39537426  0.16895978  0.18323790     0.16400
O221        O  0.32993112  0.06952496  0.13753000    -0.59600
H222        H  0.37273182  0.04700117  0.15443170     0.14900
H223        H  0.03232478  0.09919700  0.19780855     0.46800
H224        H  0.45170951  0.16423230  0.19988370     0.42100
H225        H  0.30716847  0.05315884  0.14610391     0.45600
H226        H  0.35567234  0.01075036  0.19976054     0.37100
C227        C  0.21019148  0.08616928  0.18210195    -0.27200
C228        C  0.18606408  0.10062727  0.17838719     0.02400
C229        C  0.19943970  0.13439540  0.16671712     0.30500
C230        C  0.23593050  0.15264290  0.15857316    -0.19000
C231        C  0.25953227  0.13746477  0.16154026    -0.28400
C232        C  0.24666934  0.10429098  0.17367498     0.44500
C233        C  0.14735156  0.08097706  0.18715555     0.05700
O234        O  0.17663074  0.14915445  0.16254781    -0.56900
H235        H  0.24534312  0.17791212  0.14899031     0.18700
O236        O  0.26891625  0.08853101  0.17654799    -0.63600
H237        H  0.20056967  0.06054677  0.19134045     0.17100
C238        C  0.12210363  0.04333261  0.18190314     0.29400
C239        C  0.08622719  0.02522526  0.19122166    -0.24500
C240        C  0.07543384  0.04403737  0.20614744    -0.23800
C241        C  0.10006190  0.08209239  0.21062489     0.40800
C242        C  0.13563019  0.10023606  0.20111200    -0.26200
O243        O  0.13208684  0.02427351  0.16744307    -0.58100
H244        H  0.06764465  0.49644838  0.18748328     0.16400
O245        O  0.08935491  0.10164409  0.22427012    -0.59600
H246        H  0.15453061  0.12926613  0.20514648     0.14900
H247        H  0.26352433  0.07168682  0.16377115     0.46800
H248        H  0.13755421  0.00770662  0.17667073     0.42100
H249        H  0.10799059  0.11138640  0.23633673     0.45600
H250        H  0.16380497  0.13751387  0.14854873     0.37100
C251        C  0.23235151  0.09082838  0.38276196    -0.27200
C252        C  0.20271898  0.09800154  0.37989308     0.02400
C253        C  0.20325593  0.11978971  0.36191945     0.30500
C254        C  0.23327921  0.13427321  0.34725379    -0.19000
C255        C  0.26296562  0.12709166  0.35011309    -0.28400
C256        C  0.26244431  0.10539901  0.36815458     0.44500
C257        C  0.17180945  0.08322122  0.39600469     0.05700
O258        O  0.17459772  0.12714743  0.35858955    -0.56900
H259        H  0.23363984  0.15166021  0.33379894     0.18700
O260        O  0.29065637  0.09732379  0.37127820    -0.63600
H261        H  0.23247691  0.07435149  0.39660359     0.17100
C262        C  0.15115413  0.04477565  0.40062786     0.29400
C263        C  0.12216533  0.03144451  0.41598798    -0.24500
C264        C  0.11334676  0.05599523  0.42716511    -0.23800
C265        C  0.13444161  0.09466308  0.42258108     0.40800
C266        C  0.16326861  0.10787140  0.40710305    -0.26200
O267        O  0.15805772  0.01985976  0.38949393    -0.58100
H268        H  0.10631300  0.00162316  0.41893461     0.16400
O269        O  0.12697543  0.11986777  0.43285954    -0.59600
H270        H  0.17925852  0.13760769  0.40386480     0.14900
H271        H  0.30427625  0.11148122  0.38455780     0.46800
H272        H  0.17075201  0.51215923  0.39979380     0.42100
H273        H  0.14362180  0.12849227  0.44589325     0.45600
H274        H  0.15632287  0.10633699  0.34927545     0.37100
C275        C  0.44000872  0.33543717  0.40700130    -0.27200
C276        C  0.40765685  0.32791884  0.39536084     0.02400
C277        C  0.38933288  0.34816908  0.40042730     0.30500
C278        C  0.40383565  0.37590962  0.41662144    -0.19000
C279        C  0.43691514  0.38429589  0.42788315    -0.28400
C280        C  0.45464918  0.36321871  0.42311825     0.44500
C281        C  0.39277622  0.29814088  0.37845959     0.05700
O282        O  0.35761463  0.34157194  0.38935723    -0.56900
H283        H  0.38963499  0.39159120  0.41989656     0.18700
O284        O  0.48655551  0.36966906  0.43389630    -0.63600
H285        H  0.45391997  0.31948182  0.40367878     0.17100
C286        C  0.41577475  0.29722316  0.36159418     0.29400
C287        C  0.40161263  0.26738615  0.34673792    -0.24500
C288        C  0.36449099  0.23855472  0.34831513    -0.23800
C289        C  0.34125354  0.24001492  0.36472537     0.40800
C290        C  0.35547912  0.26949034  0.37971154    -0.26200
O291        O  0.45221542  0.32509222  0.35967669    -0.58100
H292        H  0.41979998  0.26636551  0.33425967     0.16400
O293        O  0.30467175  0.21241439  0.36646894    -0.59600
H294        H  0.33749843  0.26952914  0.39265990     0.14900
H295        H  0.97772197  0.35305960  0.44667620     0.46800
H296        H  0.45142564  0.34398231  0.34992684     0.42100
H297        H  0.29072682  0.21974560  0.35618989     0.45600
H298        H  0.36658478  0.35760585  0.37609949     0.37100
C299        C  0.37793214  0.08330040  0.36394870    -0.27200
C300        C  0.40846464  0.10830308  0.37676262     0.02400
C301        C  0.42422242  0.14701591  0.37320593     0.30500
C302        C  0.40822235  0.16012265  0.35777571    -0.19000
C303        C  0.37659955  0.13507359  0.34577523    -0.28400
C304        C  0.36146975  0.09640223  0.34885520     0.44500
C305        C  0.42225177  0.09357231  0.39447950     0.05700
O306        O  0.45428155  0.17225578  0.38530890    -0.56900
H307        H  0.41967577  0.18997035  0.35572666     0.18700
O308        O  0.32990773  0.07133150  0.33776750    -0.63600
H309        H  0.36595601  0.05344422  0.36620597     0.17100
C310        C  0.39762353  0.06919091  0.41053236     0.29400
C311        C  0.41073918  0.05434941  0.42670339    -0.24500
C312        C  0.44843543  0.06379283  0.42731023    -0.23800
C313        C  0.47320892  0.08879984  0.41146833     0.40800
C314        C  0.46002132  0.10341823  0.39523434    -0.26200
O315        O  0.36096744  0.06077102  0.41095633    -0.58100
H316        H  0.39138929  0.03550734  0.43884826     0.16400
O317        O  0.51016420  0.09830294  0.41126703    -0.59600
H318        H  0.47921273  0.12189127  0.38290437     0.14900
H319        H  0.31084915  0.05717176  0.34908739     0.46800
H320        H  0.34642367  0.03467323  0.40557666     0.42100
H321        H  0.01137720  0.07887803  0.40204385     0.45600
H322        H  0.44347113  0.17649128  0.39881548     0.37100
C323        C  0.46056759  0.37585600  0.27587408    -0.27200
C324        C  0.42220924  0.35277934  0.27154792     0.02400
C325        C  0.40358988  0.36697234  0.25866176     0.30500
C326        C  0.42340967  0.40289919  0.24971055    -0.19000
C327        C  0.46189622  0.42539192  0.25342071    -0.28400
C328        C  0.48032430  0.41208834  0.26707242     0.44500
C329        C  0.40183577  0.31391295  0.28029725     0.05700
O330        O  0.36620223  0.34554393  0.25415931    -0.56900
H331        H  0.40892998  0.41287574  0.23920715     0.18700
O332        O  0.01788807  0.43343733  0.27058680    -0.63600
H333        H  0.47528012  0.36559149  0.28593619     0.17100
C334        C  0.41408348  0.28806326  0.27586547     0.29400
C335        C  0.39525552  0.25204998  0.28498919    -0.24500
C336        C  0.36408193  0.24123530  0.29853982    -0.23800
C337        C  0.35060605  0.26630963  0.30196674     0.40800
C338        C  0.36959522  0.30236426  0.29305902    -0.26200
O339        O  0.44473647  0.29790076  0.26288941    -0.58100
H340        H  0.40591274  0.23304902  0.28220649     0.16400
O341        O  0.31960354  0.25625169  0.31465931    -0.59600
H342        H  0.35954099  0.32166194  0.29651974     0.14900
H343        H  0.02039690  0.44841999  0.28387345     0.46800
H344        H  0.43509931  0.29339564  0.24760938     0.42100
H345        H  0.29807549  0.24283025  0.30456988     0.45600
H346        H  0.36464272  0.32912288  0.24183341     0.37100
C347        C  0.36556606  0.07282314  0.28421133    -0.27200
C348        C  0.40411819  0.09097901  0.27972402     0.02400
C349        C  0.42477148  0.13045723  0.28155129     0.30500
C350        C  0.40803423  0.14995065  0.29059342    -0.19000
C351        C  0.37028840  0.13102916  0.29632064    -0.28400
C352        C  0.34849471  0.09290054  0.29143078     0.44500
C353        C  0.42194558  0.06863378  0.27264039     0.05700
O354        O  0.46060350  0.15022861  0.27364310    -0.56900
H355        H  0.42464268  0.17977851  0.29340263     0.18700
O356        O  0.31074572  0.07447363  0.29500106    -0.63600
H357        H  0.34847025  0.04282070  0.28263883     0.17100
C358        C  0.45826694  0.07783279  0.27954130     0.29400
C359        C  0.47611058  0.05988247  0.26998411    -0.24500
C360        C  0.45748699  0.03085537  0.25492572    -0.23800
C361        C  0.41910095  0.01679543  0.25140264     0.40800
C362        C  0.40209854  0.03681314  0.25929256    -0.26200
O363        O  0.47564276  0.10283505  0.29635211    -0.58100
H364        H  0.50474502  0.06930958  0.27406884     0.16400
O365        O  0.39825132  0.98271526  0.24121737    -0.59600
H366        H  0.37343108  0.02744733  0.25470891     0.14900
H367        H  0.29974470  0.07796458  0.28132159     0.46800
H368        H  0.50060995  0.12157897  0.29077602     0.42100
H369        H  0.37720778  0.98303996  0.23348173     0.45600
H370        H  0.47621262  0.16592197  0.28600090     0.37100
C371        C  0.19828337  0.06571474  0.29435234    -0.27200
C372        C  0.18705652  0.08490286  0.28006476     0.02400
C373        C  0.21206794  0.12248130  0.27484023     0.30500
C374        C  0.24739414  0.14094318  0.28473209    -0.19000
C375        C  0.25795090  0.12229461  0.29994636    -0.28400
C376        C  0.23359932  0.08404034  0.30421353     0.44500
C377        C  0.14849831  0.06592968  0.27158306     0.05700
O378        O  0.20175340  0.14162164  0.26062062    -0.56900
H379        H  0.26595938  0.17025770  0.28122956     0.18700
O380        O  0.24352081  0.06492997  0.31875150    -0.63600
H381        H  0.17920192  0.03671591  0.29833891     0.17100
C382        C  0.13701157  0.03789048  0.25555145     0.29400
C383        C  0.10047831  0.02096140  0.24745303    -0.24500
C384        C  0.07540528  0.03275677  0.25446199    -0.23800
C385        C  0.08646152  0.05933523  0.27142318     0.40800
C386        C  0.12282670  0.07573153  0.27986798    -0.26200
O387        O  0.16161919  0.02774706  0.24721713    -0.58100
H388        H  0.09225427  0.99986435  0.23477749     0.16400
O389        O  0.06267792  0.07079444  0.27918896    -0.59600
H390        H  0.13131356  0.09683118  0.29257319     0.14900
H391        H  0.24235033  0.04370649  0.31039490     0.46800
H392        H  0.17351981  0.04459202  0.23450868     0.42100
H393        H  0.07146599  0.09582240  0.27262780     0.45600
H394        H  0.20813489  0.13650119  0.24580700     0.37100
C395        C  0.12557859  0.21059713  0.87026588    -0.27200
C396        C  0.09802715  0.20829238  0.88472244     0.02400
C397        C  0.08559870  0.23449883  0.88311344     0.30500
C398        C  0.10076097  0.26243895  0.86714110    -0.19000
C399        C  0.12818442  0.26461990  0.85272870    -0.28400
C400        C  0.14108344  0.23889567  0.85456736     0.44500
C401        C  0.08369159  0.17927246  0.90190961     0.05700
O402        O  0.06067292  0.23454386  0.89803042    -0.56900
H403        H  0.09178809  0.28308795  0.86637301     0.18700
O404        O  0.16995642  0.24217020  0.84186103    -0.63600
H405        H  0.13567678  0.19085206  0.87149263     0.17100
C406        C  0.04515480  0.15476170  0.90433939     0.29400
C407        C  0.03238940  0.12705621  0.92038623    -0.24500
C408        C  0.05761122  0.12232379  0.93371706    -0.23800
C409        C  0.09625051  0.14694572  0.93132022     0.40800
C410        C  0.10897798  0.17523415  0.91554388    -0.26200
O411        O  0.01977623  0.15665315  0.89055786    -0.58100
H412        H  0.00259749  0.10812190  0.92167735     0.16400
O413        O  0.12182197  0.14334866  0.94401938    -0.59600
H414        H  0.13874864  0.19395927  0.91383295     0.13300
H415        H  0.19299590  0.26061021  0.84955608     0.46800
H416        H  0.01775305  0.14088942  0.87774522     0.42100
H417        H  0.12606675  0.15961051  0.95695537     0.45600
H418        H  0.03802293  0.22899480  0.88943695     0.37100
C419        C  0.29738693  0.42370433  0.86461777    -0.27200
C420        C  0.29964082  0.40197827  0.88166419     0.02400
C421        C  0.27060120  0.36503020  0.88460292     0.30500
C422        C  0.24016835  0.34995053  0.87023159    -0.19000
C423        C  0.23843563  0.37123799  0.85277908    -0.28400
C424        C  0.26685066  0.40864049  0.85028815     0.44500
C425        C  0.33177377  0.41843702  0.89680356     0.05700
O426        O  0.27107727  0.34411670  0.90202704    -0.56900
H427        H  0.21798362  0.32142390  0.87261070     0.18700
O428        O  0.26504136  0.43059983  0.83393210    -0.63600
H429        H  0.31937591  0.45237583  0.86244993     0.17100
C430        C  0.35533391  0.40296230  0.89898748     0.29400
C431        C  0.38421448  0.41759420  0.91444278    -0.24500
C432        C  0.39052283  0.44819860  0.92761233    -0.23800
C433        C  0.36747063  0.46437493  0.92484419     0.40800
C434        C  0.33842863  0.44945736  0.90950607    -0.26200
O435        O  0.35041305  0.37361773  0.88603100    -0.58100
H436        H  0.40198013  0.40520062  0.91592418     0.16400
O437        O  0.37269051  0.49447324  0.93716855    -0.59600
H438        H  0.32052732  0.46167841  0.90782706     0.14900
H439        H  0.24933077  0.44053306  0.83992521     0.46800
H440        H  0.36380696  0.38517542  0.87218150     0.42100
H441        H  0.35709603  0.48361921  0.95044589     0.45600
H442        H  0.27649052  0.32517904  0.89559879     0.37100
C443        C  0.08498692  0.38381592  0.86575587    -0.27200
C444        C  0.11025650  0.41178679  0.87997265     0.02400
C445        C  0.14853957  0.42327765  0.87848737     0.30500
C446        C  0.16082520  0.40628579  0.86321801    -0.19000
C447        C  0.13547306  0.37794434  0.84923497    -0.28400
C448        C  0.09726161  0.36657104  0.85069728     0.44500
C449        C  0.09575712  0.42642547  0.89734224     0.05700
O450        O  0.17363085  0.44890885  0.89301569    -0.56900
H451        H  0.19015136  0.41435831  0.86282255     0.18700
O452        O  0.07143871  0.33728273  0.83842333    -0.63600
H453        H  0.05539062  0.37438910  0.86688528     0.17100
C454        C  0.10803298  0.46484692  0.89930552     0.29400
C455        C  0.09313635  0.47753423  0.91566388    -0.24500
C456        C  0.06532784  0.45227371  0.92999910    -0.23800
C457        C  0.05344418  0.41385796  0.92815043     0.40800
C458        C  0.06857766  0.40126893  0.91191941    -0.26200
O459        O  0.13374360  0.49009282  0.88493970    -0.58100
H460        H  0.10247461  0.50714602  0.91661611     0.16400
O461        O  0.02700281  0.38829777  0.94206616    -0.59600
H462        H  0.05905074  0.37163701  0.91070444     0.14900
H463        H  0.06233740  0.31505439  0.84804103     0.46800
H464        H  0.11885821  0.49161263  0.87257341     0.42100
H465        H  0.04120961  0.38706407  0.95489969     0.45600
H466        H  0.18934027  0.47158431  0.88417298     0.37100
C467        C  0.36905254  0.45820315  0.76863285    -0.27200
C468        C  0.35494477  0.42082247  0.77522794     0.02400
C469        C  0.37781272  0.40440446  0.77244359     0.30500
C470        C  0.41376289  0.42536757  0.76342794    -0.19000
C471        C  0.42680293  0.46200464  0.75609521    -0.28400
C472        C  0.40431632  0.47849036  0.75883802     0.44500
C473        C  0.31601852  0.39950297  0.78418582     0.05700
O474        O  0.36399401  0.36702206  0.77640829    -0.56900
H475        H  0.43038765  0.41200943  0.76059152     0.18700
O476        O  0.41580764  0.01360821  0.75068858    -0.63600
H477        H  0.35228840  0.47160337  0.77057708     0.17100
C478        C  0.30747424  0.37676189  0.80303289     0.29400
C479        C  0.27108419  0.35845246  0.81138258    -0.24500
C480        C  0.24327883  0.36530916  0.80284466    -0.23800
C481        C  0.25144831  0.38752399  0.78387528     0.40800
C482        C  0.28717038  0.40362063  0.77444139    -0.26200
O483        O  0.33479742  0.37394715  0.81432278    -0.58100
H484        H  0.26527562  0.34050353  0.82553884     0.16400
O485        O  0.22537916  0.39514042  0.77494215    -0.59600
H486        H  0.29266447  0.42053405  0.75981913     0.14900
H487        H  0.41755317  0.02912544  0.76354837     0.46800
H488        H  0.34397957  0.39406873  0.82552843     0.42100
H489        H  0.22902305  0.41794434  0.78261778     0.45600
H490        H  0.38071000  0.36558602  0.78764369     0.37100
C491        C  0.08032354  0.46061741  0.77846031    -0.27200
C492        C  0.07420106  0.42583222  0.77042355     0.02400
C493        C  0.04783034  0.40873553  0.75331039     0.30500
C494        C  0.02832205  0.42579572  0.74501472    -0.19000
C495        C  0.03681571  0.46176188  0.75174690    -0.28400
C496        C  0.06284412  0.47902588  0.76881131     0.44500
C497        C  0.09506776  0.40766017  0.77990972     0.05700
O498        O  0.04179704  0.37604391  0.74378413    -0.56900
H499        H  0.00761353  0.41146549  0.73234980     0.18700
O500        O  0.07223167  0.51425846  0.77580965    -0.63600
H501        H  0.09914424  0.47404011  0.79209786     0.17100
C502        C  0.13301862  0.42885211  0.78636947     0.29400
C503        C  0.15085802  0.41143901  0.79666318    -0.24500
C504        C  0.13243392  0.37262468  0.79941493    -0.23800
C505        C  0.09584236  0.35095248  0.79152249     0.40800
C506        C  0.07702601  0.36851491  0.78261966    -0.26200
O507        O  0.15313178  0.46661712  0.78274213    -0.58100
H508        H  0.17916308  0.42834323  0.80267852     0.16400
O509        O  0.07823715  0.31262907  0.79285258    -0.59600
H510        H  0.04788013  0.35121018  0.77836985     0.14900
H511        H  0.09083372  0.03108502  0.76565978     0.46800
H512        H  0.16238317  0.46929115  0.76745594     0.42100
H513        H  0.05472362  0.30462014  0.80106260     0.45600
H514        H  0.06224927  0.38359950  0.73296051     0.37100
C515        C  0.13439754  0.20916516  0.78468218    -0.27200
C516        C  0.09518689  0.18649043  0.78396312     0.02400
C517        C  0.07328251  0.20125557  0.79260593     0.30500
C518        C  0.09041538  0.23663444  0.80256590    -0.19000
C519        C  0.12939458  0.25891944  0.80311630    -0.28400
C520        C  0.15141098  0.24537898  0.79359844     0.44500
C521        C  0.07754180  0.14795887  0.77407628     0.05700
O522        O  0.03505843  0.18158519  0.79128832    -0.56900
H523        H  0.07316604  0.24682122  0.80984446     0.18700
O524        O  0.18962282  0.26722125  0.79329605    -0.63600
H525        H  0.15219821  0.19871126  0.77869346     0.17100
C526        C  0.09170039  0.14077148  0.75470094     0.29400
C527        C  0.07427895  0.10482772  0.74558106    -0.24500
C528        C  0.04050203  0.07590976  0.75400828    -0.23800
C529        C  0.02708756  0.08243074  0.77382432     0.40800
C530        C  0.04605401  0.11782586  0.78393756    -0.26200
O531        O  0.12079549  0.16922227  0.74353235    -0.58100
H532        H  0.08654244  0.10015399  0.73108740     0.16400
O533        O  0.49532207  0.05487717  0.78316516    -0.59600
H534        H  0.03541639  0.12182752  0.79933888     0.14900
H535        H  0.19933823  0.25428413  0.80271662     0.46800
H536        H  0.14162206  0.16368326  0.74431463     0.42100
H537        H  0.47650767  0.06298801  0.78130605     0.45600
H538        H  0.02901860  0.18676455  0.77637777     0.37100
C539        C  0.12376160  0.20526287  0.59466320    -0.27200
C540        C  0.09417670  0.19972067  0.58079641     0.02400
C541        C  0.07843546  0.22311902  0.58282447     0.30500
C542        C  0.09366347  0.25280953  0.59777315    -0.19000
C543        C  0.12389642  0.25889535  0.61107888    -0.28400
C544        C  0.13849041  0.23453384  0.60987662     0.44500
C545        C  0.08023010  0.16950061  0.56425885     0.05700
O546        O  0.04756038  0.21639367  0.57073999    -0.56900
H547        H  0.08208655  0.27134416  0.59887955     0.18700
O548        O  0.16861284  0.24062802  0.62249643    -0.63600
H549        H  0.13604832  0.18738245  0.59331323     0.17100
C550        C  0.07928875  0.17694047  0.54174817     0.29400
C551        C  0.06604673  0.14776783  0.52645964    -0.24500
C552        C  0.05403721  0.11093927  0.53323692    -0.23800
C553        C  0.05601674  0.10383010  0.55582000     0.40800
C554        C  0.06905310  0.13299265  0.57102522    -0.26200
O555        O  0.09175851  0.21270080  0.53446916    -0.58100
H556        H  0.06513907  0.15404047  0.50926630     0.16400
O557        O  0.04633833  0.06871163  0.56322797    -0.59600
H558        H  0.07027055  0.12701242  0.58824919     0.14900
H559        H  0.15864827  0.22020730  0.63349629     0.46800
H560        H  0.11920808  0.22387642  0.53304617     0.42100
H561        H  0.02057281  0.05827300  0.56896072     0.45600
H562        H  0.05604968  0.23795591  0.56062463     0.37100
C563        C  0.26756990  0.35834818  0.57694151    -0.27200
C564        C  0.29380468  0.39649203  0.57792301     0.02400
C565        C  0.29114373  0.41869994  0.59462624     0.30500
C566        C  0.26214053  0.40260268  0.60999332    -0.19000
C567        C  0.23585121  0.36439491  0.60896964    -0.28400
C568        C  0.23861701  0.34227900  0.59224967     0.44500
C569        C  0.32446763  0.41240162  0.56176715     0.05700
O570        O  0.31576719  0.45638782  0.59539347    -0.56900
H571        H  0.25958301  0.42012939  0.62234953     0.18700
O572        O  0.21380961  0.30466000  0.59121712    -0.63600
H573        H  0.26970301  0.34094188  0.56432708     0.17100
C574        C  0.36145587  0.42561376  0.56854971     0.29400
C575        C  0.39019097  0.43973410  0.55310409    -0.24500
C576        C  0.38281271  0.44075506  0.53056882    -0.23800
C577        C  0.34544764  0.42701462  0.52378548     0.40800
C578        C  0.31663977  0.41292602  0.53937606    -0.26200
O579        O  0.36977390  0.42447766  0.59026504    -0.58100
H580        H  0.41844203  0.44983727  0.55892700     0.16400
O581        O  0.33639284  0.92731069  0.50203613    -0.59600
H582        H  0.28808792  0.40249134  0.53399934     0.14900
H583        H  0.19761363  0.30126418  0.57836016     0.46800
H584        H  0.36700764  0.39935942  0.59244388     0.42100
H585        H  0.32957495  0.90216393  0.49634060     0.45600
H586        H  0.33269268  0.45994448  0.60788430     0.37100
C587        C  0.09262146  0.44961462  0.56306400    -0.27200
C588        C  0.09673289  0.41897983  0.55747343     0.02400
C589        C  0.08674115  0.40335274  0.53632538     0.30500
C590        C  0.07089434  0.41740514  0.52132104    -0.19000
C591        C  0.06504350  0.44706860  0.52729157    -0.28400
C592        C  0.07729873  0.46395886  0.54813032     0.44500
C593        C  0.10989579  0.40272268  0.57437365     0.05700
O594        O  0.09074079  0.37331870  0.53060169    -0.56900
H595        H  0.06198957  0.40427790  0.50536511     0.18700
O596        O  0.07395778  0.49423972  0.55424587    -0.63600
H597        H  0.10084547  0.46210316  0.57922984     0.17100
C598        C  0.14761522  0.41236756  0.57553799     0.29400
C599        C  0.15961268  0.39741389  0.59218705    -0.24500
C600        C  0.13432281  0.37289692  0.60780570    -0.23800
C601        C  0.09655477  0.36337454  0.60670248     0.40800
C602        C  0.08458243  0.37846291  0.59002536    -0.26200
O603        O  0.17290854  0.43667486  0.56064322    -0.58100
H604        H  0.18870079  0.40457033  0.59277386     0.16400
O605        O  0.07090905  0.33755610  0.62087094    -0.59600
H606        H  0.05540325  0.37088339  0.58911573     0.14900
H607        H  0.09661011  0.51628095  0.54842543     0.46800
H608        H  0.17472205  0.42061483  0.54913950     0.42100
H609        H  0.06137881  0.35134013  0.62964415     0.45600
H610        H  0.11539053  0.38419025  0.52326090     0.37100
C611        C  0.12064624  0.20904675  0.68202926    -0.27200
C612        C  0.08246001  0.18555931  0.67750201     0.02400
C613        C  0.06338104  0.19956727  0.66494837     0.30500
C614        C  0.08262405  0.23595207  0.65655647    -0.19000
C615        C  0.12109438  0.25887985  0.66028714    -0.28400
C616        C  0.13990514  0.24559358  0.67363601     0.44500
C617        C  0.06266069  0.14658395  0.68596529     0.05700
O618        O  0.02621345  0.17740327  0.66009367    -0.56900
H619        H  0.06781658  0.24578446  0.64622958     0.18700
O620        O  0.17761053  0.26697989  0.67714778    -0.63600
H621        H  0.13564631  0.19878246  0.69183121     0.17100
C622        C  0.07405007  0.12058332  0.68013257     0.29400
C623        C  0.05640899  0.08470416  0.68947103    -0.24500
C624        C  0.02777518  0.07453184  0.70493836    -0.23800
C625        C  0.01486112  0.09970156  0.70969686     0.40800
C626        C  0.03232587  0.13540490  0.70028447    -0.26200
O627        O  0.10307741  0.13034593  0.66580738    -0.58100
H628        H  0.06660978  0.06563084  0.68567039     0.16400
O629        O  0.98670207  0.09042892  0.72460666    -0.59600
H630        H  0.02301471  0.15491807  0.70479604     0.14900
H631        H  0.18012712  0.28240619  0.69021793     0.46800
H632        H  0.09158826  0.12530065  0.65098967     0.42100
H633        H  0.96363575  0.08110329  0.71569923     0.45600
H634        H  0.02562611  0.16434869  0.64628648     0.37100
C635        C  0.30022578  0.37195836  0.66625944    -0.27200
C636        C  0.31050384  0.40321599  0.67974501     0.02400
C637        C  0.28416194  0.41501980  0.68364453     0.30500
C638        C  0.24891784  0.39660257  0.67339714    -0.19000
C639        C  0.23938688  0.36631369  0.65920232    -0.28400
C640        C  0.26507013  0.35351547  0.65608505     0.44500
C641        C  0.34871675  0.42291602  0.68958528     0.05700
O642        O  0.29261084  0.44454774  0.69738379    -0.56900
H643        H  0.22938812  0.40664349  0.67604690     0.18700
O644        O  0.25556285  0.32238679  0.64350494    -0.63600
H645        H  0.31982344  0.36210855  0.66328910     0.17100
C646        C  0.36215816  0.40314007  0.70200535     0.29400
C647        C  0.39858858  0.42155486  0.71041277    -0.24500
C648        C  0.42199119  0.46011770  0.70736479    -0.23800
C649        C  0.40902267  0.47985939  0.69457316     0.40800
C650        C  0.37259424  0.46132459  0.68586238    -0.26200
O651        O  0.33957924  0.36587496  0.70643030    -0.58100
H652        H  0.40833725  0.40574707  0.71983247     0.16400
O653        O  0.43113760  0.01746147  0.69113592    -0.59600
H654        H  0.36299003  0.47695047  0.67611867     0.14900
H655        H  0.27370371  0.33092401  0.63121700     0.46800
H656        H  0.32675056  0.36508659  0.72035782     0.42100
H657        H  0.44492641  0.01973911  0.67737308     0.45600
H658        H  0.28661348  0.43362631  0.71235023     0.37100
C659        C  0.03893189  0.42056109  0.67983865    -0.27200
C660        C  0.07683521  0.43342292  0.68464095     0.02400
C661        C  0.09631989  0.46558345  0.69781570     0.30500
C662        C  0.07780082  0.48345985  0.70645485    -0.19000
C663        C  0.03944317  0.46920697  0.70280313    -0.28400
C664        C  0.02020171  0.43812762  0.68889004     0.44500
C665        C  0.09593037  0.41335151  0.67592125     0.05700
O666        O  0.13306355  0.47875805  0.70324450    -0.56900
H667        H  0.09289796  0.50720184  0.71728482     0.18700
O668        O  0.98272329  0.42350349  0.68502041    -0.63600
H669        H  0.02361077  0.39637355  0.66938361     0.17100
C670        C  0.08100718  0.37455187  0.67905909     0.29400
C671        C  0.09935174  0.35637426  0.67031933    -0.24500
C672        C  0.13205076  0.37618862  0.65792763    -0.23800
C673        C  0.14767447  0.41503716  0.65541144     0.40800
C674        C  0.12971483  0.43331575  0.66441064    -0.26200
O675        O  0.04887885  0.35431455  0.69094386    -0.58100
H676        H  0.08710645  0.32643840  0.67237817     0.16400
O677        O  0.18081949  0.43533893  0.64442730    -0.59600
H678        H  0.14185253  0.46314038  0.66193992     0.14900
H679        H  0.97003216  0.40608495  0.69737436     0.46800
H680        H  0.02923378  0.33960008  0.67995497     0.42100
H681        H  0.17462893  0.44482607  0.63100331     0.45600
H682        H  0.13246059  0.46568627  0.71705994     0.37100
C683        C  0.16438867  0.83355877  0.65674351     0.45900
H684        H  0.16458173  0.83451146  0.67497280    -0.03100
C685        C  0.16366502  0.83125335  0.61397273     0.45900
H686        H  0.16307212  0.83022437  0.59572304    -0.03100
C687        C  0.14715085  0.85557735  0.64583625    -0.16800
C688        C  0.20378743  0.85002164  0.64628215    -0.16600
C689        C  0.14181793  0.79360343  0.64710767    -0.17000
C690        C  0.14720304  0.85419579  0.62330382    -0.16900
C691        C  0.20278967  0.84853549  0.62368836    -0.16500
C692        C  0.14183278  0.79301687  0.62462358    -0.16800
C693        C  0.16816201  0.83356806  0.80418053     0.45900
H694        H  0.16842475  0.83194190  0.78599163    -0.03100
C695        C  0.16650455  0.83657714  0.84686054     0.45900
H696        H  0.16572434  0.83774146  0.86509080    -0.03100
C697        C  0.20742486  0.85222082  0.81502888    -0.16800
C698        C  0.14932674  0.85552019  0.81311490    -0.16600
C699        C  0.14682659  0.79487674  0.81522045    -0.17000
C700        C  0.20588962  0.85399803  0.83758727    -0.16900
C701        C  0.14903903  0.85718567  0.83562022    -0.16500
C702        C  0.14603159  0.79690741  0.83766198    -0.16800
C703        C  0.99656741  0.50065945  0.70800572     0.45900
H704        H  0.99489205  0.50063224  0.68979552    -0.03100
C705        C  0.00074782  0.50071002  0.75089069     0.45900
H706        H  0.50210392  0.50017014  0.76919876    -0.03100
C707        C  0.01884034  0.98271099  0.71705787    -0.16800
C708        C  0.01537254  0.53998740  0.71820839    -0.16600
C709        C  0.45818189  0.97969580  0.71936448    -0.17000
C710        C  0.01998707  0.98164388  0.73964957    -0.16900
C711        C  0.01888029  0.54040222  0.74080545    -0.16500
C712        C  0.46042604  0.98004696  0.74188198    -0.16800
C713        C  0.33153159  0.66638977  0.30097499     0.45900
H714        H  0.33004274  0.66614271  0.28275212    -0.03100
C715        C  0.33505334  0.66658164  0.34371083     0.45900
H716        H  0.33706041  0.66710818  0.36191000    -0.03100
C717        C  0.29316760  0.64354069  0.31230428    -0.16800
C718        C  0.35469824  0.64944342  0.31012468    -0.16600
C719        C  0.34893104  0.70583851  0.31128481    -0.17000
C720        C  0.29522319  0.64404162  0.33489068    -0.16900
C721        C  0.35665718  0.64989042  0.33259867    -0.16500
C722        C  0.35023850  0.70541045  0.33379798    -0.16800
C723        C  0.33236197  0.67021479  0.11557483     0.45900
H724        H  0.33128395  0.67056604  0.09733174    -0.03100
C725        C  0.33411024  0.66916790  0.15832411     0.45900
H726        H  0.33473445  0.66898077  0.17655560    -0.03100
C727        C  0.29414929  0.65392744  0.12615300    -0.16800
C728        C  0.34928929  0.64749080  0.12467150    -0.16600
C729        C  0.35538577  0.70873556  0.12554055    -0.17000
C730        C  0.29444572  0.65308661  0.14861715    -0.16900
C731        C  0.35002774  0.64607613  0.14728217    -0.16500
C732        C  0.35647896  0.70864637  0.14804682    -0.16800
C733        C  0.00162643  0.50176696  0.20853299     0.45900
H734        H  0.00230263  0.50292184  0.19030860    -0.03100
C735        C  0.00057558  0.49947766  0.25153242     0.45900
H736        H  0.99995592  0.49833268  0.26976117    -0.03100
C737        C  0.47976569  0.51894173  0.21915450    -0.16800
C738        C  0.48399496  0.96184515  0.21814498    -0.16600
C739        C  0.04046533  0.52292670  0.21907523    -0.17000
C740        C  0.47879701  0.51742083  0.24173886    -0.16900
C741        C  0.48262260  0.96073386  0.24073769    -0.16500
C742        C  0.04022311  0.52066320  0.24162664    -0.16800
Zn743      Zn  0.05393263  0.53170107  0.97198565     1.49700
Zn744      Zn  0.47761938  0.95220237  0.97038676     1.49400
Zn745      Zn  0.99980866  0.50330507  0.01265014     1.49100
Zn746      Zn  0.47493525  0.52923722  0.97116739     1.49500
O747        O  0.00160666  0.50393213  0.98118790    -1.83700
O748        O  0.06608405  0.00011423  0.95215932    -0.74300
O749        O  0.45786306  0.91419605  0.99559385    -0.74200
O750        O  0.04977280  0.53017049  0.02581228    -0.73700
O751        O  0.01447328  0.94455263  0.95222843    -0.74300
O752        O  0.08925796  0.54889060  0.99791356    -0.73900
O753        O  0.47596790  0.95229616  0.02424424    -0.74500
O754        O  0.45243880  0.54467396  0.99565910    -0.73900
O755        O  0.43509048  0.94290863  0.94996173    -0.74700
O756        O  0.47117964  0.52585825  0.02457692    -0.74100
O757        O  0.43397619  0.99627291  0.95064200    -0.74500
O758        O  0.00877741  0.57462979  0.95408629    -0.74400
O759        O  0.06376289  0.57697852  0.95453363    -0.74200
C760        C  0.04786623  0.96621636  0.94584315     0.77600
C761        C  0.46017210  0.91956046  0.01632300     0.78000
C762        C  0.08286718  0.54648492  0.01846874     0.77000
C763        C  0.45364604  0.54094332  0.01632531     0.77400
C764        C  0.42137732  0.96312873  0.94360039     0.78500
C765        C  0.04290672  0.59002594  0.94848907     0.77600
Zn766      Zn  0.44626746  0.97614843  0.46871529     1.49700
Zn767      Zn  0.02303142  0.97266416  0.46748089     1.49400
Zn768      Zn  0.02641773  0.55205089  0.47009317     1.49100
Zn769      Zn  0.99771345  0.49670396  0.51030305     1.49500
O770        O  0.99813481  0.49939925  0.47878245    -1.83700
O771        O  0.43458481  0.93160435  0.44936266    -0.74300
O772        O  0.06492037  0.50587060  0.44727431    -0.74200
O773        O  0.49508260  0.56416732  0.45047706    -0.73700
O774        O  0.48702925  0.92875574  0.44962477    -0.74300
O775        O  0.43933016  0.51272465  0.44986110    -0.73900
O776        O  0.07077357  0.56199310  0.45142506    -0.74500
O777        O  0.02125335  0.54674832  0.52384682    -0.73900
O778        O  0.04519820  0.95532839  0.49160678    -0.74700
O779        O  0.04360490  0.58717629  0.49642088    -0.74100
O780        O  0.02786285  0.97416351  0.52120717    -0.74500
O781        O  0.44705588  0.96888961  0.52264331    -0.74400
O782        O  0.40933129  0.95841042  0.49432393    -0.74200
C783        C  0.45347924  0.91628569  0.44327526     0.77600
C784        C  0.08141031  0.54063250  0.44284373     0.78000
C785        C  0.46153843  0.54609740  0.44360493     0.77000
C786        C  0.03887566  0.58011221  0.51693143     0.77400
C787        C  0.04518292  0.95929653  0.51234974     0.78500
C788        C  0.41441797  0.95663490  0.51487211     0.77600
C789        C  0.17970968  0.59410654  0.04407340    -0.27200
C790        C  0.17069628  0.59165911  0.06642339     0.02400
C791        C  0.13323750  0.57493702  0.07291544     0.30500
C792        C  0.10515548  0.56068032  0.05704674    -0.19000
C793        C  0.11382203  0.56254555  0.03454467    -0.28400
C794        C  0.15160858  0.57949493  0.02813064     0.44500
C795        C  0.20076577  0.60758213  0.08280172     0.05700
O796        O  0.12400813  0.57405481  0.09464920    -0.56900
H797        H  0.07645289  0.54825126  0.06250999     0.18700
O798        O  0.16151030  0.58236929  0.00643096    -0.63600
H799        H  0.20867693  0.60720598  0.03900904     0.17100
C800        C  0.20450956  0.58479067  0.09866637     0.29400
C801        C  0.23450718  0.60046389  0.11333354    -0.24500
C802        C  0.26048093  0.63868831  0.11241168    -0.23800
C803        C  0.25624941  0.66155949  0.09688213     0.40800
C804        C  0.22652440  0.64590530  0.08211900    -0.26200
O805        O  0.18043344  0.54693926  0.09893926    -0.58100
H806        H  0.23822683  0.58259127  0.12492364     0.16400
O807        O  0.28150165  0.69904567  0.09570286    -0.59600
H808        H  0.22367123  0.66359393  0.06998260     0.14900
H809        H  0.16303668  0.05841989  0.00363605     0.46800
H810        H  0.16648905  0.54188092  0.11294372     0.42100
H811        H  0.27347998  0.71083002  0.10706780     0.45600
H812        H  0.11160270  0.54733805  0.09895100     0.37100
C813        C  0.40876269  0.77192923  0.07817510    -0.27200
C814        C  0.40014152  0.80061399  0.08038937     0.02400
C815        C  0.37843183  0.80033688  0.09830292     0.30500
C816        C  0.36487051  0.77088794  0.11343730    -0.19000
C817        C  0.37347003  0.74207879  0.11117297    -0.28400
C818        C  0.39588563  0.74297928  0.09348902     0.44500
C819        C  0.41466755  0.83089609  0.06398393     0.05700
O820        O  0.36869630  0.82759268  0.10040306    -0.56900
H821        H  0.34654204  0.76989527  0.12645323     0.18700
O822        O  0.40474893  0.71522817  0.09079589    -0.63600
H823        H  0.42574797  0.77210446  0.06455476     0.17100
C824        C  0.44023913  0.86765737  0.07020266     0.29400
C825        C  0.45481072  0.89582684  0.05442680    -0.24500
C826        C  0.44457839  0.88807026  0.03213103    -0.23800
C827        C  0.41913006  0.85101545  0.02588609     0.40800
C828        C  0.40456868  0.82270279  0.04178810    -0.26200
O829        O  0.45163516  0.87626002  0.09163459    -0.58100
H830        H  0.47452836  0.92392449  0.05976974     0.16400
O831        O  0.40813967  0.84212244  0.00443264    -0.59600
H832        H  0.38512606  0.79428141  0.03683255     0.14900
H833        H  0.43162613  0.72687479  0.09457423     0.46800
H834        H  0.97172351  0.87210172  0.09362975     0.42100
H835        H  0.38558470  0.84475811  0.00291066     0.45600
H836        H  0.38326635  0.84296253  0.11312615     0.37100
C837        C  0.41490114  0.62383157  0.09419736    -0.27200
C838        C  0.39170225  0.60224775  0.07693489     0.02400
C839        C  0.35468214  0.59487000  0.07574029     0.30500
C840        C  0.34110706  0.60905313  0.09183446    -0.19000
C841        C  0.36422228  0.63078404  0.10911495    -0.28400
C842        C  0.40150942  0.63852566  0.11016009     0.44500
C843        C  0.40587184  0.58587180  0.06088826     0.05700
O844        O  0.33132471  0.57278267  0.05934118    -0.56900
H845        H  0.31236518  0.60298846  0.09088585     0.18700
O846        O  0.42499049  0.66032539  0.12659894    -0.63600
H847        H  0.44347633  0.62942073  0.09516882     0.17100
C848        C  0.41399148  0.59923618  0.03922596     0.29400
C849        C  0.42836947  0.58353180  0.02449371    -0.24500
C850        C  0.43516568  0.55482768  0.03130750    -0.23800
C851        C  0.42599416  0.54098021  0.05298362     0.40800
C852        C  0.41149132  0.55659060  0.06755248    -0.26200
O853        O  0.40852583  0.62795434  0.03246915    -0.58100
H854        H  0.43526870  0.59459314  0.00796588     0.16400
O855        O  0.43026281  0.51162051  0.05997184    -0.59600
H856        H  0.40468802  0.54588286  0.08417049     0.14900
H857        H  0.43526570  0.68643561  0.12153407     0.46800
H858        H  0.93245946  0.65131044  0.03626607     0.42100
H859        H  0.45428584  0.02380561  0.06884152     0.45600
H860        H  0.33173496  0.59043955  0.04812438     0.37100
C861        C  0.43574909  0.80038749  0.16782865    -0.27200
C862        C  0.41626901  0.81675252  0.17735698     0.02400
C863        C  0.37702768  0.79561878  0.17907307     0.30500
C864        C  0.35785736  0.75905235  0.17094046    -0.19000
C865        C  0.37734944  0.74338668  0.16078990    -0.28400
C866        C  0.41653650  0.76396107  0.15957237     0.44500
C867        C  0.43704522  0.85565988  0.18567728     0.05700
O868        O  0.35711155  0.81074700  0.18822586    -0.56900
H869        H  0.32760988  0.74359819  0.17151421     0.18700
O870        O  0.43609217  0.74935215  0.14932378    -0.63600
H871        H  0.46585087  0.81628184  0.16622657     0.17100
C872        C  0.46585550  0.86616529  0.20120352     0.29400
C873        C  0.48289366  0.90197698  0.21032288    -0.24500
C874        C  0.47106942  0.92755193  0.20462773    -0.23800
C875        C  0.44419697  0.91805330  0.18796871     0.40800
C876        C  0.42727154  0.88222594  0.17865170    -0.26200
O877        O  0.47549115  0.84071222  0.20882808    -0.58100
H878        H  0.00438650  0.90930270  0.22278703     0.16400
O879        O  0.43237198  0.94248132  0.18178288    -0.59600
H880        H  0.40571872  0.87480547  0.16633239     0.14900
H881        H  0.43736525  0.73204220  0.16016456     0.46800
H882        H  0.00013165  0.84811780  0.20214636     0.42100
H883        H  0.44649009  0.95453062  0.16821880     0.45600
H884        H  0.35628852  0.80539123  0.20414219     0.37100
C885        C  0.46121586  0.59257429  0.19400567    -0.27200
C886        C  0.42323237  0.57118749  0.18806616     0.02400
C887        C  0.40562493  0.53186594  0.19054115     0.30500
C888        C  0.42572340  0.51510371  0.19845380    -0.19000
C889        C  0.46232542  0.53677826  0.20607602    -0.28400
C890        C  0.48035116  0.57574208  0.20344214     0.44500
C891        C  0.40250826  0.58973409  0.17898889     0.05700
O892        O  0.36824807  0.50944221  0.18637662    -0.56900
H893        H  0.41156478  0.48505531  0.20027562     0.18700
O894        O  0.01635119  0.59785009  0.21038619    -0.63600
H895        H  0.47621391  0.62249939  0.19153268     0.17100
C896        C  0.40772227  0.62416938  0.18726316     0.29400
C897        C  0.38933355  0.64157903  0.17740727    -0.24500
C898        C  0.36473807  0.62476587  0.15972735    -0.23800
C899        C  0.35669140  0.58876205  0.15304089     0.40800
C900        C  0.37682210  0.57264913  0.16173371    -0.26200
O901        O  0.42980074  0.64050061  0.20534633    -0.58100
H902        H  0.39509669  0.66875322  0.18328099     0.16400
O903        O  0.32949529  0.56913719  0.13771785    -0.59600
H904        H  0.37228155  0.54664013  0.15464934     0.14900
H905        H  0.03215477  0.59923564  0.19776381     0.46800
H906        H  0.45135715  0.66403774  0.19998184     0.42100
H907        H  0.30655255  0.55342834  0.14631176     0.45600
H908        H  0.35545705  0.51038157  0.19995039     0.37100
C909        C  0.21027232  0.58695409  0.18241079    -0.27200
C910        C  0.18610597  0.60131422  0.17854729     0.02400
C911        C  0.19944593  0.63495563  0.16675315     0.30500
C912        C  0.23591856  0.65310398  0.15856574    -0.19000
C913        C  0.25952849  0.63795095  0.16163541    -0.28400
C914        C  0.24673027  0.60498243  0.17396307     0.44500
C915        C  0.14734242  0.58158613  0.18722525     0.05700
O916        O  0.17660985  0.64965005  0.16248874    -0.56900
H917        H  0.24529946  0.67825062  0.14886851     0.18700
O918        O  0.26900570  0.58929222  0.17698817    -0.63600
H919        H  0.20067290  0.56143974  0.19175682     0.17100
C920        C  0.12220551  0.54395427  0.18188769     0.29400
C921        C  0.08630207  0.52568322  0.19116035    -0.24500
C922        C  0.07537916  0.54431065  0.20613877    -0.23800
C923        C  0.09989438  0.58236585  0.21069992     0.40800
C924        C  0.13548255  0.60069076  0.20120876    -0.26200
O925        O  0.13234351  0.52505391  0.16740326    -0.58100
H926        H  0.06747821  0.99598377  0.18760987     0.16400
O927        O  0.08906714  0.60173350  0.22441490    -0.59600
H928        H  0.15429910  0.62971622  0.20529652     0.14900
H929        H  0.26348373  0.57214772  0.16435295     0.46800
H930        H  0.13798087  0.50859091  0.17661437     0.42100
H931        H  0.10760810  0.61132261  0.23653353     0.45600
H932        H  0.16399176  0.63809619  0.14842733     0.37100
C933        C  0.23199733  0.59081263  0.38267967    -0.27200
C934        C  0.20236117  0.59796010  0.37974319     0.02400
C935        C  0.20293924  0.61970169  0.36173582     0.30500
C936        C  0.23301541  0.63417584  0.34710390    -0.19000
C937        C  0.26271984  0.62703694  0.35003628    -0.28400
C938        C  0.26214909  0.60538504  0.36811266     0.44500
C939        C  0.17141539  0.58321036  0.39583006     0.05700
O940        O  0.17427110  0.62702291  0.35834234    -0.56900
H941        H  0.23340246  0.65152265  0.33361834     0.18700
O942        O  0.29037238  0.59735036  0.37131089    -0.63600
H943        H  0.23207879  0.57435759  0.39654544     0.17100
C944        C  0.15066012  0.54475691  0.40040646     0.29400
C945        C  0.12170793  0.53145504  0.41579008    -0.24500
C946        C  0.11303360  0.55604463  0.42704620    -0.23800
C947        C  0.13421153  0.59471886  0.42249757     0.40800
C948        C  0.16299056  0.60789820  0.40698387    -0.26200
O949        O  0.15745494  0.51981378  0.38921898    -0.58100
H950        H  0.10578322  0.50162754  0.41870290     0.16400
O951        O  0.12690557  0.61996158  0.43286805    -0.59600
H952        H  0.17905769  0.63763983  0.40377658     0.14900
H953        H  0.30393890  0.61154793  0.38459257     0.46800
H954        H  0.17130925  0.01222742  0.40011582     0.42100
H955        H  0.14357400  0.62844654  0.44589434     0.45600
H956        H  0.15608240  0.60624065  0.34897832     0.37100
C957        C  0.43997201  0.83566265  0.40669598    -0.27200
C958        C  0.40753827  0.82807375  0.39512637     0.02400
C959        C  0.38913248  0.84820632  0.40028516     0.30500
C960        C  0.40361538  0.87588536  0.41651606    -0.19000
C961        C  0.43674867  0.88431546  0.42773307    -0.28400
C962        C  0.45458040  0.86336609  0.42286090     0.44500
C963        C  0.39260738  0.79827656  0.37824006     0.05700
O964        O  0.35733444  0.84153481  0.38928100    -0.56900
H965        H  0.38934012  0.89147024  0.41986611     0.18700
O966        O  0.48654686  0.86986086  0.43358236    -0.63600
H967        H  0.45395452  0.81980167  0.40329181     0.17100
C968        C  0.41548663  0.79746749  0.36126814     0.29400
C969        C  0.40132654  0.76754638  0.34646979    -0.24500
C970        C  0.36430051  0.73854351  0.34819318    -0.23800
C971        C  0.34115635  0.73993159  0.36469376     0.40800
C972        C  0.35539958  0.76947192  0.37963513    -0.26200
O973        O  0.45181353  0.82552571  0.35919536    -0.58100
H974        H  0.41945594  0.76660231  0.33392537     0.16400
O975        O  0.30465340  0.71220141  0.36657406    -0.59600
H976        H  0.33751056  0.76944613  0.39266193     0.14900
H977        H  0.97711501  0.85284583  0.44697847     0.46800
H978        H  0.45078993  0.84402018  0.34920340     0.42100
H979        H  0.29056389  0.71918523  0.35618982     0.45600
H980        H  0.36620975  0.85730656  0.37591601     0.37100
C981        C  0.37778191  0.58319220  0.36400421    -0.27200
C982        C  0.40846596  0.60819480  0.37672142     0.02400
C983        C  0.42425878  0.64690248  0.37311860     0.30500
C984        C  0.40815142  0.66000599  0.35774887    -0.19000
C985        C  0.37639602  0.63495924  0.34584168    -0.28400
C986        C  0.36122804  0.59629061  0.34896582     0.44500
C987        C  0.42233250  0.59347443  0.39441531     0.05700
O988        O  0.45447809  0.67214673  0.38511196    -0.56900
H989        H  0.41965876  0.68985267  0.35565833     0.18700
O990        O  0.32956532  0.57122045  0.33795715    -0.63600
H991        H  0.36576787  0.55333837  0.36629361     0.17100
C992        C  0.39779122  0.56924614  0.41055339     0.29400
C993        C  0.41095423  0.55444313  0.42672318    -0.24500
C994        C  0.44861906  0.56376774  0.42725096    -0.23800
C995        C  0.47330968  0.58859362  0.41131266     0.40800
C996        C  0.46007465  0.60318339  0.39507868    -0.26200
O997        O  0.36117627  0.56095025  0.41106607    -0.58100
H998        H  0.39166598  0.53573348  0.43893699     0.16400
O999        O  0.51022197  0.59794572  0.41102282    -0.59600
H1000       H  0.47920242  0.62153109  0.38268386     0.14900
H1001       H  0.31061721  0.55703657  0.34932651     0.46800
H1002       H  0.34652438  0.53483450  0.40573016     0.42100
H1003       H  0.01057974  0.57757776  0.40196280     0.45600
H1004       H  0.44384496  0.67645061  0.39867323     0.37100
C1005       C  0.46027317  0.87592056  0.27593518    -0.27200
C1006       C  0.42196459  0.85271650  0.27150803     0.02400
C1007       C  0.40338075  0.86679482  0.25848908     0.30500
C1008       C  0.42319568  0.90270047  0.24949786    -0.19000
C1009       C  0.46164621  0.92529876  0.25329561    -0.28400
C1010       C  0.48002207  0.91212478  0.26708824     0.44500
C1011       C  0.40163917  0.81381739  0.28024966     0.05700
O1012       O  0.36604042  0.84527330  0.25388969    -0.56900
H1013       H  0.40874175  0.91257895  0.23890006     0.18700
O1014       O  0.01795062  0.93329312  0.27060707    -0.63600
H1015       H  0.47496552  0.86577097  0.28610592     0.17100
C1016       C  0.41424124  0.78817541  0.27604218     0.29400
C1017       C  0.39543236  0.75212829  0.28512654    -0.24500
C1018       C  0.36393520  0.74106284  0.29842964    -0.23800
C1019       C  0.35015490  0.76593025  0.30165862     0.40800
C1020       C  0.36910202  0.80201588  0.29277492    -0.26200
O1021       O  0.44522913  0.79825155  0.26332996    -0.58100
H1022       H  0.40635441  0.73330429  0.28252200     0.16400
O1023       O  0.31890405  0.75565010  0.31415912    -0.59600
H1024       H  0.35878522  0.82114573  0.29608457     0.14900
H1025       H  0.02049454  0.94810186  0.28398135     0.46800
H1026       H  0.43593863  0.79372091  0.24797513     0.42100
H1027       H  0.29756956  0.74225133  0.30393640     0.45600
H1028       H  0.36463849  0.82889543  0.24157766     0.37100
C1029       C  0.36547868  0.57261925  0.28436327    -0.27200
C1030       C  0.40401939  0.59080785  0.27984261     0.02400
C1031       C  0.42463248  0.63029411  0.28161577     0.30500
C1032       C  0.40787500  0.64978057  0.29063651    -0.19000
C1033       C  0.37014551  0.63083533  0.29639520    -0.28400
C1034       C  0.34838195  0.59268148  0.29156229     0.44500
C1035       C  0.42187748  0.56848749  0.27277797     0.05700
O1036       O  0.46044047  0.65007527  0.27367278    -0.56900
H1037       H  0.42445419  0.67962331  0.29340115     0.18700
O1038       O  0.31063718  0.57422939  0.29514663    -0.63600
H1039       H  0.34841339  0.54260768  0.28282756     0.17100
C1040       C  0.45822580  0.57776186  0.27966327     0.29400
C1041       C  0.47609834  0.55983645  0.27011452    -0.24500
C1042       C  0.45748525  0.53077921  0.25507355    -0.23800
C1043       C  0.41908305  0.51664399  0.25157540     0.40800
C1044       C  0.40204049  0.53662417  0.25946149    -0.26200
O1045       O  0.47560498  0.60282138  0.29644822    -0.58100
H1046       H  0.50474428  0.56930510  0.27419111     0.16400
O1047       O  0.39826560  0.48253663  0.24141329    -0.59600
H1048       H  0.37335445  0.52720231  0.25489547     0.14900
H1049       H  0.29961720  0.57774743  0.28148342     0.46800
H1050       H  0.50054899  0.62157683  0.29085015     0.42100
H1051       H  0.37717727  0.48279618  0.23369279     0.45600
H1052       H  0.47606891  0.66583123  0.28600655     0.37100
C1053       C  0.19817445  0.56543200  0.29430487    -0.27200
C1054       C  0.18693779  0.58455205  0.27997097     0.02400
C1055       C  0.21194419  0.62210883  0.27469551     0.30500
C1056       C  0.24726271  0.64063092  0.28459661    -0.19000
C1057       C  0.25781951  0.62206544  0.29987135    -0.28400
C1058       C  0.23348415  0.58381781  0.30417647     0.44500
C1059       C  0.14835396  0.56557138  0.27152620     0.05700
O1060       O  0.20161774  0.64118346  0.26043200    -0.56900
H1061       H  0.26581397  0.66993468  0.28105951     0.18700
O1062       O  0.24340588  0.56478034  0.31876948    -0.63600
H1063       H  0.17909834  0.53644871  0.29832863     0.17100
C1064       C  0.13686263  0.53765395  0.25541794     0.29400
C1065       C  0.10033511  0.52081206  0.24731459    -0.24500
C1066       C  0.07526963  0.53256662  0.25440691    -0.23800
C1067       C  0.08630276  0.55895814  0.27147075     0.40800
C1068       C  0.12267206  0.57528346  0.27990839    -0.26200
O1069       O  0.16145575  0.52754410  0.24701944    -0.58100
H1070       H  0.09211013  0.49982037  0.23457450     0.16400
O1071       O  0.06248588  0.57029350  0.27935337    -0.59600
H1072       H  0.13115769  0.59626899  0.29268247     0.14900
H1073       H  0.24220128  0.54349338  0.31046740     0.46800
H1074       H  0.17327661  0.54438624  0.23430038     0.42100
H1075       H  0.07137038  0.59547463  0.27299324     0.45600
H1076       H  0.20786346  0.63588658  0.24562603     0.37100
C1077       C  0.12520822  0.71057020  0.87007219    -0.27200
C1078       C  0.09793727  0.70851823  0.88467007     0.02400
C1079       C  0.08575835  0.73493166  0.88317235     0.30500
C1080       C  0.10085846  0.76279688  0.86715123    -0.19000
C1081       C  0.12801827  0.76473366  0.85260279    -0.28400
C1082       C  0.14069935  0.73882523  0.85434985     0.44500
C1083       C  0.08365109  0.67952871  0.90187643     0.05700
O1084       O  0.06117107  0.73525575  0.89824091    -0.56900
H1085       H  0.09206160  0.78358820  0.86645533     0.18700
O1086       O  0.16939135  0.74190154  0.84154645    -0.63600
H1087       H  0.13512638  0.69067223  0.87121400     0.17100
C1088       C  0.04510627  0.65524800  0.90448404     0.29400
C1089       C  0.03239609  0.62747300  0.92048695    -0.24500
C1090       C  0.05766185  0.62245706  0.93360839    -0.23800
C1091       C  0.09630932  0.64688608  0.93105398     0.40800
C1092       C  0.10898966  0.67522845  0.91531451    -0.26200
O1093       O  0.01964657  0.65742360  0.89091355    -0.58100
H1094       H  0.00258814  0.60871843  0.92190856     0.16400
O1095       O  0.12193182  0.64303971  0.94355360    -0.59600
H1096       H  0.13876761  0.69378191  0.91347164     0.13300
H1097       H  0.19253984  0.76006095  0.84926806     0.46800
H1098       H  0.01721048  0.64156825  0.87806688     0.42100
H1099       H  0.12670056  0.65952911  0.95644356     0.45600
H1100       H  0.03846556  0.72991564  0.88977213     0.37100
C1101       C  0.29744181  0.92358176  0.86436874    -0.27200
C1102       C  0.29961067  0.90187633  0.88145861     0.02400
C1103       C  0.27043718  0.86501123  0.88446802     0.30500
C1104       C  0.23998325  0.84997410  0.87010755    -0.19000
C1105       C  0.23833734  0.87123548  0.85261075    -0.28400
C1106       C  0.26686655  0.90858023  0.85006816     0.44500
C1107       C  0.33175244  0.91831452  0.89660067     0.05700
O1108       O  0.27079885  0.84415374  0.90195508    -0.56900
H1109       H  0.21771406  0.82149756  0.87252915     0.18700
O1110       O  0.26513991  0.93054752  0.83368746    -0.63600
H1111       H  0.31952019  0.95220021  0.86215226     0.17100
C1112       C  0.35516448  0.90268786  0.89889767     0.29400
C1113       C  0.38403598  0.91732492  0.91436612    -0.24500
C1114       C  0.39047442  0.94807206  0.92744476    -0.23800
C1115       C  0.36757219  0.96439239  0.92455450     0.40800
C1116       C  0.33855300  0.94948045  0.90920167    -0.26200
O1117       O  0.35010382  0.87318725  0.88604253    -0.58100
H1118       H  0.40168073  0.90480906  0.91593480     0.16400
O1119       O  0.37291338  0.99463546  0.93677275    -0.59600
H1120       H  0.32077188  0.96182266  0.90743654     0.14900
H1121       H  0.24910527  0.94019333  0.83955488     0.46800
H1122       H  0.36376844  0.88460925  0.87224235     0.42100
H1123       H  0.35736336  0.98393763  0.95008238     0.45600
H1124       H  0.27603413  0.82505519  0.89558782     0.37100
C1125       C  0.08506013  0.88427782  0.86542849    -0.27200
C1126       C  0.11029575  0.91196906  0.87979809     0.02400
C1127       C  0.14853299  0.92322178  0.87841962     0.30500
C1128       C  0.16079881  0.90625678  0.86311723    -0.19000
C1129       C  0.13547718  0.87816160  0.84899174    -0.28400
C1130       C  0.09731037  0.86706102  0.85032950     0.44500
C1131       C  0.09579364  0.92653764  0.89721595     0.05700
O1132       O  0.17357461  0.94856497  0.89308517    -0.56900
H1133       H  0.19007894  0.91413518  0.86281489     0.18700
O1134       O  0.07146876  0.83802234  0.83791388    -0.63600
H1135       H  0.05549413  0.87503298  0.86647094     0.17100
C1136       C  0.10826720  0.96497865  0.89934572     0.29400
C1137       C  0.09339514  0.97760653  0.91575661    -0.24500
C1138       C  0.06542596  0.95227703  0.92999115    -0.23800
C1139       C  0.05335960  0.91383796  0.92798098     0.40800
C1140       C  0.06845477  0.90130635  0.91169064    -0.26200
O1141       O  0.13415781  0.99031479  0.88509271    -0.58100
H1142       H  0.10288801  0.00723999  0.91682759     0.16400
O1143       O  0.02676188  0.88819184  0.94178958    -0.59600
H1144       H  0.05877746  0.87165776  0.91035247     0.14900
H1145       H  0.06286330  0.81550819  0.84723158     0.46800
H1146       H  0.11942270  0.99197949  0.87268752     0.42100
H1147       H  0.04083971  0.88674504  0.95462767     0.45600
H1148       H  0.18943816  0.97134591  0.88436114     0.37100
C1149       C  0.36905130  0.95820707  0.76858440    -0.27200
C1150       C  0.35483956  0.92077049  0.77508591     0.02400
C1151       C  0.37760723  0.90426145  0.77223185     0.30500
C1152       C  0.41358484  0.92520045  0.76325196    -0.19000
C1153       C  0.42673756  0.96190510  0.75600987    -0.28400
C1154       C  0.40434322  0.97847911  0.75881886     0.44500
C1155       C  0.31591621  0.89948433  0.78403496     0.05700
O1156       O  0.36365865  0.86682930  0.77609138    -0.56900
H1157       H  0.43013730  0.91178023  0.76036191     0.18700
O1158       O  0.41566665  0.51354533  0.75062486    -0.63600
H1159       H  0.35234688  0.97166201  0.77057889     0.17100
C1160       C  0.30735580  0.87670037  0.80286216     0.29400
C1161       C  0.27096608  0.85839506  0.81120893    -0.24500
C1162       C  0.24317885  0.86528441  0.80267811    -0.23800
C1163       C  0.25137076  0.88755443  0.78373091     0.40800
C1164       C  0.28709866  0.90366578  0.77430629    -0.26200
O1165       O  0.33466817  0.87383879  0.81413411    -0.58100
H1166       H  0.26514225  0.84042835  0.82535850     0.16400
O1167       O  0.22531869  0.89521314  0.77481550    -0.59600
H1168       H  0.29262293  0.92063325  0.75970519     0.14900
H1169       H  0.41757653  0.52916950  0.76346319     0.46800
H1170       H  0.34403720  0.89409730  0.82525768     0.42100
H1171       H  0.22892078  0.91795841  0.78254581     0.45600
H1172       H  0.38030166  0.86523617  0.78731497     0.37100
C1173       C  0.07974234  0.96011892  0.77851459    -0.27200
C1174       C  0.07373184  0.92546883  0.77030703     0.02400
C1175       C  0.04735207  0.90849346  0.75318644     0.30500
C1176       C  0.02782049  0.92560750  0.74500206    -0.19000
C1177       C  0.03633032  0.96153093  0.75184699    -0.28400
C1178       C  0.06226910  0.97860596  0.76897051     0.44500
C1179       C  0.09476522  0.90736157  0.77963402     0.05700
O1180       O  0.04136901  0.87591302  0.74352766    -0.56900
H1181       H  0.00714458  0.91140264  0.73230157     0.18700
O1182       O  0.07160988  0.01375192  0.77611451    -0.63600
H1183       H  0.09851501  0.97340454  0.79219052     0.17100
C1184       C  0.13268487  0.92868076  0.78613503     0.29400
C1185       C  0.15062405  0.91138454  0.79643786    -0.24500
C1186       C  0.13235856  0.87256748  0.79912827    -0.23800
C1187       C  0.09587736  0.85076723  0.79109704     0.40800
C1188       C  0.07692714  0.86819778  0.78220533    -0.26200
O1189       O  0.15266117  0.96646689  0.78255565    -0.58100
H1190       H  0.17887265  0.92838107  0.80251812     0.16400
O1191       O  0.07845968  0.81244848  0.79233348    -0.59600
H1192       H  0.04782813  0.85077535  0.77789255     0.14900
H1193       H  0.09138715  0.53146334  0.76527968     0.46800
H1194       H  0.16179780  0.96923572  0.76723708     0.42100
H1195       H  0.05518970  0.80432961  0.80082124     0.45600
H1196       H  0.06168657  0.88362651  0.73259346     0.37100
C1197       C  0.13445755  0.70935235  0.78437306    -0.27200
C1198       C  0.09525714  0.68651645  0.78375391     0.02400
C1199       C  0.07328992  0.70113113  0.79250972     0.30500
C1200       C  0.09035502  0.73648742  0.80249852    -0.19000
C1201       C  0.12931920  0.75892217  0.80295703    -0.28400
C1202       C  0.15138639  0.74555553  0.79330274     0.44500
C1203       C  0.07767282  0.64796526  0.77387713     0.05700
O1204       O  0.03506249  0.68133850  0.79127114    -0.56900
H1205       H  0.07306036  0.74654980  0.80985951     0.18700
O1206       O  0.18957667  0.76753486  0.79290003    -0.63600
H1207       H  0.15232610  0.69903638  0.77830467     0.17100
C1208       C  0.09179645  0.64077788  0.75448289     0.29400
C1209       C  0.07438181  0.60482001  0.74537364    -0.24500
C1210       C  0.04064256  0.57588206  0.75383034    -0.23800
C1211       C  0.02728113  0.58240110  0.77366579     0.40800
C1212       C  0.04624916  0.61780071  0.78377019    -0.26200
O1213       O  0.12084314  0.66923012  0.74328597    -0.58100
H1214       H  0.08662131  0.60014987  0.73086803     0.16400
O1215       O  0.49535608  0.55468467  0.78332300    -0.59600
H1216       H  0.03565170  0.62177655  0.79919293     0.14900
H1217       H  0.19941684  0.75492954  0.80250373     0.46800
H1218       H  0.14168619  0.66371229  0.74404149     0.42100
H1219       H  0.47642981  0.56263792  0.78142703     0.45600
H1220       H  0.02889070  0.68662761  0.77642396     0.37100
C1221       C  0.12347181  0.70530672  0.59466707    -0.27200
C1222       C  0.09387220  0.69970612  0.58079771     0.02400
C1223       C  0.07816178  0.72314322  0.58277385     0.30500
C1224       C  0.09342518  0.75291171  0.59767509    -0.19000
C1225       C  0.12366592  0.75904624  0.61098858    -0.28400
C1226       C  0.13823912  0.73465686  0.60983242     0.44500
C1227       C  0.07993393  0.66944104  0.56427818     0.05700
O1228       O  0.04727356  0.71637569  0.57068908    -0.56900
H1229       H  0.08184570  0.77144650  0.59875171     0.18700
O1230       O  0.16838379  0.74080139  0.62244838    -0.63600
H1231       H  0.13574923  0.68741360  0.59335360     0.17100
C1232       C  0.07896622  0.67684530  0.54176410     0.29400
C1233       C  0.06573354  0.64765908  0.52648617    -0.24500
C1234       C  0.05376758  0.61084398  0.53326982    -0.23800
C1235       C  0.05580219  0.60376338  0.55585041     0.40800
C1236       C  0.06882194  0.63294367  0.57105190    -0.26200
O1237       O  0.09140896  0.71259132  0.53446851    -0.58100
H1238       H  0.06479141  0.65391183  0.50929292     0.16400
O1239       O  0.04620754  0.56866284  0.56325349    -0.59600
H1240       H  0.07007857  0.62698675  0.58827539     0.14900
H1241       H  0.15852522  0.72020147  0.63333110     0.46800
H1242       H  0.11885605  0.72377100  0.53302364     0.42100
H1243       H  0.02046729  0.55819543  0.56903175     0.45600
H1244       H  0.05573939  0.73792255  0.56056394     0.37100
C1245       C  0.26706875  0.85848268  0.57675892    -0.27200
C1246       C  0.29353735  0.89654660  0.57788194     0.02400
C1247       C  0.29105653  0.91868085  0.59470199     0.30500
C1248       C  0.26200844  0.90259227  0.61003977    -0.19000
C1249       C  0.23550862  0.86446235  0.60888404    -0.28400
C1250       C  0.23808507  0.84241959  0.59204623     0.44500
C1251       C  0.32420785  0.91244012  0.56172498     0.05700
O1252       O  0.31589925  0.95630801  0.59561018    -0.56900
H1253       H  0.25960444  0.92007405  0.62249007     0.18700
O1254       O  0.21307587  0.80486206  0.59088336    -0.63600
H1255       H  0.26905051  0.84112487  0.56405368     0.17100
C1256       C  0.36122043  0.92578611  0.56851218     0.29400
C1257       C  0.38994296  0.93987779  0.55305965    -0.24500
C1258       C  0.38253342  0.94071701  0.53051201    -0.23800
C1259       C  0.34515109  0.92682692  0.52372348     0.40800
C1260       C  0.31635690  0.91278674  0.53932016    -0.26200
O1261       O  0.36957963  0.92478682  0.59023511    -0.58100
H1262       H  0.41821031  0.95009384  0.55888693     0.16400
O1263       O  0.33672527  0.42771151  0.50211305    -0.59600
H1264       H  0.28779175  0.90224144  0.53393545     0.14900
H1265       H  0.19696549  0.80171442  0.57802384     0.46800
H1266       H  0.36654072  0.89957941  0.59251602     0.42100
H1267       H  0.32972326  0.40255492  0.49635281     0.45600
H1268       H  0.33248768  0.95965436  0.60824951     0.37100
C1269       C  0.09770544  0.95284251  0.56147883    -0.27200
C1270       C  0.09703129  0.91914209  0.55740235     0.02400
C1271       C  0.08244407  0.90017529  0.53746154     0.30500
C1272       C  0.06691139  0.91419435  0.52223696    -0.19000
C1273       C  0.06569354  0.94697444  0.52686354    -0.28400
C1274       C  0.08236015  0.96692343  0.54635665     0.44500
C1275       C  0.11011707  0.90333658  0.57462446     0.05700
O1276       O  0.08194466  0.86724953  0.53314844    -0.56900
H1277       H  0.05448610  0.89868773  0.50728719     0.18700
O1278       O  0.08320722  0.99994387  0.55098224    -0.63600
H1279       H  0.10942844  0.96782614  0.57668073     0.17100
C1280       C  0.14805235  0.91397137  0.57637192     0.29400
C1281       C  0.15988370  0.89886180  0.59301474    -0.24500
C1282       C  0.13424911  0.87340001  0.60814337    -0.23800
C1283       C  0.09631728  0.86310188  0.60656858     0.40800
C1284       C  0.08444846  0.87811697  0.58978871    -0.26200
O1285       O  0.17363660  0.93895596  0.56185108    -0.58100
H1286       H  0.18909763  0.90655239  0.59394338     0.16400
O1287       O  0.07048869  0.83663172  0.62037173    -0.59600
H1288       H  0.05512088  0.86979642  0.58844250     0.14900
H1289       H  0.10600310  0.01951057  0.54364970     0.46800
H1290       H  0.17378726  0.92358583  0.54936208     0.42100
H1291       H  0.06073667  0.84998825  0.62936041     0.45600
H1292       H  0.10642818  0.87468238  0.52625184     0.37100
C1293       C  0.12067642  0.70885167  0.68176573    -0.27200
C1294       C  0.08248467  0.68534571  0.67725859     0.02400
C1295       C  0.06334925  0.69937060  0.66477373     0.30500
C1296       C  0.08252005  0.73581256  0.65646334    -0.19000
C1297       C  0.12098619  0.75877991  0.66018699    -0.28400
C1298       C  0.13987202  0.74545039  0.67343960     0.44500
C1299       C  0.06269811  0.64637415  0.68573262     0.05700
O1300       O  0.02618831  0.67717483  0.65991407    -0.56900
H1301       H  0.06765796  0.74566524  0.64619969     0.18700
O1302       O  0.17758659  0.76685018  0.67691445    -0.63600
H1303       H  0.13572430  0.69857309  0.69151066     0.17100
C1304       C  0.07406748  0.62035334  0.67991154     0.29400
C1305       C  0.05642501  0.58448878  0.68927441    -0.24500
C1306       C  0.02781819  0.57435835  0.70475738    -0.23800
C1307       C  0.01492971  0.59954989  0.70950668     0.40800
C1308       C  0.03238997  0.63523099  0.70006897    -0.26200
O1309       O  0.10307599  0.63008330  0.66557699    -0.58100
H1310       H  0.06661056  0.56539979  0.68548297     0.16400
O1311       O  0.98681461  0.59033018  0.72444063    -0.59600
H1312       H  0.02310084  0.65476230  0.70457876     0.14900
H1313       H  0.18013590  0.78225705  0.69000014     0.46800
H1314       H  0.09151295  0.62465925  0.65077452     0.42100
H1315       H  0.96372632  0.58099833  0.71555433     0.45600
H1316       H  0.02562863  0.66436724  0.64600907     0.37100
C1317       C  0.30025007  0.87210569  0.66601059    -0.27200
C1318       C  0.31045588  0.90323200  0.67959794     0.02400
C1319       C  0.28403766  0.91488751  0.68361782     0.30500
C1320       C  0.24876367  0.89643795  0.67340619    -0.19000
C1321       C  0.23928112  0.86627143  0.65911792    -0.28400
C1322       C  0.26507104  0.85364006  0.65585889     0.44500
C1323       C  0.34865386  0.92290754  0.68945270     0.05700
O1324       O  0.29243875  0.94429404  0.69744846    -0.56900
H1325       H  0.22916682  0.90636338  0.67615989     0.18700
O1326       O  0.25564813  0.82264698  0.64316709    -0.63600
H1327       H  0.31991584  0.86236955  0.66295546     0.17100
C1328       C  0.36202939  0.90310527  0.70189838     0.29400
C1329       C  0.39845142  0.92147793  0.71031951    -0.24500
C1330       C  0.42190006  0.96003453  0.70727368    -0.23800
C1331       C  0.40899167  0.97980399  0.69445643     0.40800
C1332       C  0.37257413  0.96130522  0.68572505    -0.26200
O1333       O  0.33939017  0.86585352  0.70633208    -0.58100
H1334       H  0.40815961  0.90563813  0.71973985     0.16400
O1335       O  0.43111814  0.51752537  0.69126183    -0.59600
H1336       H  0.36300940  0.97694767  0.67596496     0.14900
H1337       H  0.27379673  0.83133862  0.63088015     0.46800
H1338       H  0.32658897  0.86510578  0.72026411     0.42100
H1339       H  0.44492132  0.51983659  0.67749976     0.45600
H1340       H  0.28615115  0.93319890  0.71236602     0.37100
C1341       C  0.03896547  0.92089299  0.67983571    -0.27200
C1342       C  0.07676862  0.93352390  0.68482131     0.02400
C1343       C  0.09615766  0.96549631  0.69815732     0.30500
C1344       C  0.07765017  0.98341899  0.70674569    -0.19000
C1345       C  0.03936031  0.96934843  0.70293155    -0.28400
C1346       C  0.02021871  0.93845450  0.68887606     0.44500
C1347       C  0.09584755  0.91339710  0.67613767     0.05700
O1348       O  0.13276889  0.97841506  0.70381012    -0.56900
H1349       H  0.09267288  0.00701380  0.71768659     0.18700
O1350       O  0.98280228  0.92398217  0.68485908    -0.63600
H1351       H  0.02371635  0.89686958  0.66925302     0.17100
C1352       C  0.08054624  0.87447808  0.67896116     0.29400
C1353       C  0.09885530  0.85625622  0.67023174    -0.24500
C1354       C  0.13194044  0.87616276  0.65819141    -0.23800
C1355       C  0.14794227  0.91510313  0.65600612     0.40800
C1356       C  0.12998774  0.93341466  0.66497106    -0.26200
O1357       O  0.04807608  0.85415439  0.69053559    -0.58100
H1358       H  0.08631336  0.82624322  0.67202631     0.16400
O1359       O  0.18142184  0.93544555  0.64535726    -0.59600
H1360       H  0.14241706  0.96331865  0.66272880     0.14900
H1361       H  0.96992361  0.90634668  0.69709438     0.46800
H1362       H  0.02869837  0.83970640  0.67935622     0.42100
H1363       H  0.17572102  0.94536435  0.63194138     0.45600
H1364       H  0.13183390  0.96501472  0.71754917     0.37100
C1365       C  0.66449619  0.33351386  0.65678879     0.45900
H1366       H  0.66475345  0.33445347  0.67501887    -0.03100
C1367       C  0.66359985  0.33123814  0.61401654     0.45900
H1368       H  0.66293061  0.33024396  0.59576581    -0.03100
C1369       C  0.64737848  0.35567654  0.64594479    -0.16800
C1370       C  0.70383941  0.34983175  0.64627604    -0.16600
C1371       C  0.64173899  0.29358622  0.64714553    -0.17000
C1372       C  0.64734622  0.35431247  0.62341722    -0.16900
C1373       C  0.70274863  0.34833602  0.62368005    -0.16500
C1374       C  0.64165664  0.29301065  0.62465924    -0.16800
C1375       C  0.66832369  0.33363201  0.80424019     0.45900
H1376       H  0.66859739  0.33204010  0.78605138    -0.03100
C1377       C  0.66657346  0.33650122  0.84692358     0.45900
H1378       H  0.66573713  0.33760067  0.86515444    -0.03100
C1379       C  0.70757733  0.35234873  0.81511129    -0.16800
C1380       C  0.64936919  0.35546219  0.81319832    -0.16600
C1381       C  0.64707097  0.29490556  0.81524106    -0.17000
C1382       C  0.70598545  0.35409482  0.83767227    -0.16900
C1383       C  0.64901473  0.35702630  0.83570227    -0.16500
C1384       C  0.64624553  0.29686198  0.83768061    -0.16800
C1385       C  0.49651166  0.00078286  0.70804117     0.45900
H1386       H  0.49485681  0.00079864  0.68983117    -0.03100
C1387       C  0.50064722  0.00074589  0.75092697     0.45900
H1388       H  0.00189707  0.00011946  0.76918624    -0.03100
C1389       C  0.51899404  0.48275748  0.71706925    -0.16800
C1390       C  0.51528140  0.04008110  0.71827363    -0.16600
C1391       C  0.95825035  0.47959832  0.71934299    -0.17000
C1392       C  0.52017990  0.48171878  0.73965855    -0.16900
C1393       C  0.51879956  0.04045657  0.74086698    -0.16500
C1394       C  0.96051463  0.47998143  0.74185808    -0.16800
C1395       C  0.83157140  0.16647823  0.30089990     0.45900
H1396       H  0.83011316  0.16626214  0.28267636    -0.03100
C1397       C  0.83502015  0.16660639  0.34363841     0.45900
H1398       H  0.83700111  0.16711176  0.36183856    -0.03100
C1399       C  0.79318769  0.14364110  0.31220962    -0.16800
C1400       C  0.85469609  0.14949249  0.31005411    -0.16600
C1401       C  0.84899089  0.20590675  0.31122910    -0.17000
C1402       C  0.79520574  0.14408688  0.33479726    -0.16900
C1403       C  0.85661927  0.14990975  0.33252846    -0.16500
C1404       C  0.85024230  0.20545082  0.33374009    -0.16800
C1405       C  0.83234743  0.17024012  0.11552099     0.45900
H1406       H  0.83130094  0.17058224  0.09727672    -0.03100
C1407       C  0.83408361  0.16921405  0.15827155     0.45900
H1408       H  0.83470666  0.16903266  0.17650308    -0.03100
C1409       C  0.79411905  0.15394617  0.12608847    -0.16800
C1410       C  0.84927174  0.14752529  0.12463169    -0.16600
C1411       C  0.85535456  0.20876686  0.12548268    -0.17000
C1412       C  0.79441139  0.15310416  0.14855665    -0.16900
C1413       C  0.85001601  0.14612853  0.14724042    -0.16500
C1414       C  0.85645206  0.20869490  0.14798780    -0.16800
C1415       C  0.50159821  0.00168369  0.20857656     0.45900
H1416       H  0.50227939  0.00284260  0.19035248    -0.03100
C1417       C  0.50051452  0.99938947  0.25157574     0.45900
H1418       H  0.49989773  0.99824632  0.26980439    -0.03100
C1419       C  0.97993504  0.01909428  0.21904568    -0.16800
C1420       C  0.98400235  0.46192948  0.21809865    -0.16600
C1421       C  0.54043093  0.02288115  0.21911202    -0.17000
C1422       C  0.97900880  0.01765347  0.24162783    -0.16900
C1423       C  0.98265998  0.46082319  0.24069097    -0.16500
C1424       C  0.54016934  0.02062383  0.24166416    -0.16800
Zn1425     Zn  0.55384256  0.03163510  0.97199374     1.49700
Zn1426     Zn  0.97764576  0.45231430  0.97038569     1.49400
Zn1427     Zn  0.49973624  0.00322204  0.01262283     1.49100
Zn1428     Zn  0.97487090  0.02910708  0.97123312     1.49500
O1429       O  0.50151094  0.00382899  0.98116452    -1.83700
O1430       O  0.56592256  0.49998037  0.95207223    -0.74300
O1431       O  0.95779779  0.41428742  0.99557071    -0.74200
O1432       O  0.54968625  0.03011986  0.02580313    -0.73700
O1433       O  0.51430829  0.44442684  0.95226167    -0.74300
O1434       O  0.58916945  0.04887220  0.99790597    -0.73900
O1435       O  0.97603458  0.45235933  0.02423347    -0.74500
O1436       O  0.95227270  0.04438547  0.99574707    -0.73900
O1437       O  0.93512694  0.44312703  0.94997563    -0.74700
O1438       O  0.97101933  0.02555795  0.02465712    -0.74100
O1439       O  0.93409931  0.49653550  0.95071777    -0.74500
O1440       O  0.50863447  0.07441890  0.95394995    -0.74400
O1441       O  0.56366361  0.07686334  0.95452579    -0.74200
C1442       C  0.54767355  0.46605485  0.94581770     0.77600
C1443       C  0.96014511  0.41963045  0.01630096     0.78000
C1444       C  0.58277786  0.04647478  0.01845879     0.77000
C1445       C  0.95347164  0.04063501  0.01641287     0.77400
C1446       C  0.92143980  0.46339536  0.94366201     0.78500
C1447       C  0.54278853  0.08983652  0.94839814     0.77600
Zn1448     Zn  0.94610088  0.47616101  0.46855628     1.49700
Zn1449     Zn  0.52328683  0.47274525  0.46755917     1.49400
Zn1450     Zn  0.52657087  0.05202518  0.47008833     1.49100
Zn1451     Zn  0.49821938  0.99675082  0.51039471     1.49500
O1452       O  0.49834977  0.99938904  0.47885179    -1.83700
O1453       O  0.93464832  0.43171615  0.44920615    -0.74300
O1454       O  0.56498091  0.00575993  0.44726127    -0.74200
O1455       O  0.99509820  0.06428743  0.45042783    -0.73700
O1456       O  0.98701000  0.42870013  0.44967611    -0.74300
O1457       O  0.93929584  0.01290786  0.44978128    -0.73900
O1458       O  0.57094445  0.06192835  0.45142103    -0.74500
O1459       O  0.52153085  0.04685090  0.52383487    -0.73900
O1460       O  0.54543784  0.45539630  0.49167704    -0.74700
O1461       O  0.54365943  0.08724692  0.49638374    -0.74100
O1462       O  0.52822472  0.47430033  0.52130726    -0.74500
O1463       O  0.94654518  0.46893188  0.52242432    -0.74400
O1464       O  0.90888920  0.45816745  0.49404659    -0.74200
C1465       C  0.95351035  0.41630334  0.44323196     0.77600
C1466       C  0.58152618  0.04052239  0.44283494     0.78000
C1467       C  0.96155754  0.04628086  0.44354720     0.77000
C1468       C  0.53895816  0.08020973  0.51689885     0.77400
C1469       C  0.54548819  0.45939710  0.51241913     0.78500
C1470       C  0.91391896  0.45645981  0.51460692     0.77600
C1471       C  0.67958453  0.09337203  0.04407974    -0.27200
C1472       C  0.67061172  0.09183529  0.06638778     0.02400
C1473       C  0.63320699  0.07599153  0.07284508     0.30500
C1474       C  0.60511871  0.06169253  0.05698061    -0.19000
C1475       C  0.61373350  0.06262598  0.03452534    -0.28400
C1476       C  0.65147153  0.07869271  0.02814714     0.44500
C1477       C  0.70068661  0.10775047  0.08275240     0.05700
O1478       O  0.62407153  0.07598120  0.09452019    -0.56900
H1479       H  0.57645958  0.04996640  0.06240257     0.18700
O1480       O  0.66131450  0.08054336  0.00649120    -0.63600
H1481       H  0.70851909  0.10577893  0.03904718     0.17100
C1482       C  0.70412459  0.08503224  0.09879278     0.29400
C1483       C  0.73417030  0.10064774  0.11342741    -0.24500
C1484       C  0.76045295  0.13877562  0.11233184    -0.23800
C1485       C  0.75648190  0.16159272  0.09663738     0.40800
C1486       C  0.72674943  0.14596877  0.08187954    -0.26200
O1487       O  0.67966038  0.04727418  0.09929122    -0.58100
H1488       H  0.73765804  0.08278885  0.12513908     0.16400
O1489       O  0.78198047  0.19899229  0.09529569    -0.59600
H1490       H  0.72411496  0.16359731  0.06960617     0.14900
H1491       H  0.66277120  0.55776266  0.00352366     0.46800
H1492       H  0.66562256  0.04269551  0.11322640     0.42100
H1493       H  0.77437394  0.21102708  0.10673183     0.45600
H1494       H  0.61146641  0.04941656  0.09915122     0.37100
C1495       C  0.90873536  0.27205034  0.07815185    -0.27200
C1496       C  0.89991534  0.30060513  0.08031182     0.02400
C1497       C  0.87805801  0.30020948  0.09817473     0.30500
C1498       C  0.86458651  0.27079131  0.11332773    -0.19000
C1499       C  0.87338136  0.24211000  0.11111498    -0.28400
C1500       C  0.89591256  0.24311166  0.09347178     0.44500
C1501       C  0.91443616  0.33090784  0.06392136     0.05700
O1502       O  0.86810045  0.32731363  0.10020601    -0.56900
H1503       H  0.84617252  0.26970988  0.12631642     0.18700
O1504       O  0.90493766  0.21546646  0.09082290    -0.63600
H1505       H  0.92583240  0.27231882  0.06456948     0.17100
C1506       C  0.93988941  0.36768246  0.07017785     0.29400
C1507       C  0.95452368  0.39586980  0.05441601    -0.24500
C1508       C  0.94446514  0.38812326  0.03209735    -0.23800
C1509       C  0.91910769  0.35105974  0.02581780     0.40800
C1510       C  0.90449262  0.32272574  0.04170621    -0.26200
O1511       O  0.95111911  0.37628007  0.09163493    -0.58100
H1512       H  0.97415554  0.42397357  0.05979132     0.16400
O1513       O  0.90827669  0.34217393  0.00434177    -0.59600
H1514       H  0.88514016  0.29429451  0.03672344     0.14900
H1515       H  0.93182886  0.22723343  0.09458974     0.46800
H1516       H  0.47238522  0.37203822  0.09359043     0.42100
H1517       H  0.88563971  0.34465478  0.00276520     0.45600
H1518       H  0.88259548  0.34277643  0.11291959     0.37100
C1519       C  0.91481394  0.12376905  0.09416684    -0.27200
C1520       C  0.89153880  0.10203567  0.07696970     0.02400
C1521       C  0.85449732  0.09460283  0.07581414     0.30500
C1522       C  0.84098613  0.10890802  0.09187199    -0.19000
C1523       C  0.86417261  0.13077199  0.10909110    -0.28400
C1524       C  0.90147762  0.13854287  0.11010853     0.44500
C1525       C  0.90567286  0.08559755  0.06094249     0.05700
O1526       O  0.83105759  0.07233713  0.05949650    -0.56900
H1527       H  0.81223169  0.10281181  0.09095404     0.18700
O1528       O  0.92502484  0.16037179  0.12651970    -0.63600
H1529       H  0.94340064  0.12938622  0.09511090     0.17100
C1530       C  0.91365224  0.09882362  0.03924920     0.29400
C1531       C  0.92803497  0.08310039  0.02453638    -0.24500
C1532       C  0.93498491  0.05451752  0.03139658    -0.23800
C1533       C  0.92596566  0.04081290  0.05310966     0.40800
C1534       C  0.91144625  0.05643685  0.06765948    -0.26200
O1535       O  0.90805686  0.12743661  0.03244149    -0.58100
H1536       H  0.93482060  0.09406048  0.00798281     0.16400
O1537       O  0.93041455  0.01159099  0.06015853    -0.59600
H1538       H  0.90476377  0.04584407  0.08430566     0.14900
H1539       H  0.93349931  0.18649285  0.12209632     0.46800
H1540       H  0.43253411  0.15149095  0.03569746     0.42100
H1541       H  0.95291769  0.52256708  0.06879191     0.45600
H1542       H  0.83139875  0.08987011  0.04821614     0.37100
C1543       C  0.93577796  0.30047868  0.16770738    -0.27200
C1544       C  0.91633063  0.31683365  0.17729477     0.02400
C1545       C  0.87709859  0.29567618  0.17906979     0.30500
C1546       C  0.85789948  0.25911998  0.17090642    -0.19000
C1547       C  0.87735924  0.24345694  0.16071685    -0.28400
C1548       C  0.91654426  0.26404100  0.15946378     0.44500
C1549       C  0.93712369  0.35576536  0.18559634     0.05700
O1550       O  0.85723437  0.31078059  0.18832660    -0.56900
H1551       H  0.82765456  0.24365966  0.17151666     0.18700
O1552       O  0.93607914  0.24942025  0.14920465    -0.63600
H1553       H  0.96587049  0.31638191  0.16605452     0.17100
C1554       C  0.96611878  0.36638372  0.20101161     0.29400
C1555       C  0.98307239  0.40216938  0.21017360    -0.24500
C1556       C  0.97107389  0.42764369  0.20457465    -0.23800
C1557       C  0.94407771  0.41807218  0.18798531     0.40800
C1558       C  0.92717559  0.38225002  0.17866514    -0.26200
O1559       O  0.97604995  0.34106678  0.20848333    -0.58100
H1560       H  0.50441686  0.40923964  0.22284264     0.16400
O1561       O  0.93212259  0.44242490  0.18186823    -0.59600
H1562       H  0.90551290  0.37477213  0.16641233     0.14900
H1563       H  0.93743896  0.23218240  0.16006455     0.46800
H1564       H  0.50020033  0.34807845  0.20213463     0.42100
H1565       H  0.94622469  0.45458210  0.16831796     0.45600
H1566       H  0.85428525  0.30317899  0.20396085     0.37100
C1567       C  0.96136622  0.09271465  0.19388679    -0.27200
C1568       C  0.92338732  0.07131974  0.18793612     0.02400
C1569       C  0.90579509  0.03199573  0.19041008     0.30500
C1570       C  0.92589063  0.01524813  0.19835137    -0.19000
C1571       C  0.96249965  0.03692906  0.20595910    -0.28400
C1572       C  0.98050744  0.07589344  0.20333172     0.44500
C1573       C  0.90264179  0.08986439  0.17887616     0.05700
O1574       O  0.86843196  0.00954992  0.18621717    -0.56900
H1575       H  0.91172209  0.98520657  0.20020515     0.18700
O1576       O  0.51661608  0.09773731  0.21039040    -0.63600
H1577       H  0.97635963  0.12264022  0.19141846     0.17100
C1578       C  0.90787673  0.12431346  0.18714676     0.29400
C1579       C  0.88943482  0.14169652  0.17732146    -0.24500
C1580       C  0.86475876  0.12484129  0.15968165    -0.23800
C1581       C  0.85669936  0.08883055  0.15300321     0.40800
C1582       C  0.87689086  0.07275245  0.16165304    -0.26200
O1583       O  0.93002689  0.14068609  0.20519864    -0.58100
H1584       H  0.89521676  0.16888156  0.18318619     0.16400
O1585       O  0.82943579  0.06916800  0.13772281    -0.59600
H1586       H  0.87234037  0.04674681  0.15455950     0.14900
H1587       H  0.53236819  0.09899036  0.19777094     0.46800
H1588       H  0.95155129  0.16422088  0.19980486     0.42100
H1589       H  0.80651463  0.05353670  0.14635208     0.45600
H1590       H  0.85560963  0.01035759  0.19980815     0.37100
C1591       C  0.71012766  0.08677373  0.18221500    -0.27200
C1592       C  0.68602093  0.10123366  0.17844489     0.02400
C1593       C  0.69943405  0.13498244  0.16675229     0.30500
C1594       C  0.73592051  0.15314878  0.15857857    -0.19000
C1595       C  0.75948421  0.13792470  0.16157381    -0.28400
C1596       C  0.74660542  0.10483128  0.17378989     0.44500
C1597       C  0.64726680  0.08153081  0.18715055     0.05700
O1598       O  0.67665828  0.14977813  0.16257945    -0.56900
H1599       H  0.74535025  0.17837378  0.14894997     0.18700
O1600       O  0.76882235  0.08905217  0.17671838    -0.63600
H1601       H  0.70047224  0.06116966  0.19147806     0.17100
C1602       C  0.62201761  0.04396583  0.18173226     0.29400
C1603       C  0.58615207  0.02570264  0.19106519    -0.24500
C1604       C  0.57535689  0.04427873  0.20616370    -0.23800
C1605       C  0.59997119  0.08229660  0.21078099     0.40800
C1606       C  0.63553515  0.10059799  0.20125079    -0.26200
O1607       O  0.63199990  0.02513407  0.16710130    -0.58100
H1608       H  0.56737158  0.49626429  0.18759439     0.16400
O1609       O  0.58924492  0.10166129  0.22456855    -0.59600
H1610       H  0.65443044  0.12958215  0.20539017     0.14900
H1611       H  0.76301352  0.07174178  0.16413956     0.46800
H1612       H  0.63762451  0.00854405  0.17619792     0.42100
H1613       H  0.60803826  0.11151347  0.23655024     0.45600
H1614       H  0.66405439  0.13837432  0.14848918     0.37100
C1615       C  0.73197995  0.09055507  0.38252616    -0.27200
C1616       C  0.70229000  0.09762452  0.37961274     0.02400
C1617       C  0.70280204  0.11936250  0.36162054     0.30500
C1618       C  0.73290352  0.13397706  0.34700560    -0.19000
C1619       C  0.76268383  0.12695333  0.34992763    -0.28400
C1620       C  0.76214662  0.10524892  0.36796859     0.44500
C1621       C  0.67141530  0.08290968  0.39574588     0.05700
O1622       O  0.67405041  0.12656043  0.35823474    -0.56900
H1623       H  0.73324679  0.15134141  0.33354270     0.18700
O1624       O  0.79043034  0.09729878  0.37114764    -0.63600
H1625       H  0.73210878  0.07409622  0.39637698     0.17100
C1626       C  0.65068639  0.04447492  0.40037895     0.29400
C1627       C  0.62177965  0.03123342  0.41579370    -0.24500
C1628       C  0.61313867  0.05586985  0.42702871    -0.23800
C1629       C  0.63432387  0.09452577  0.42244087     0.40800
C1630       C  0.66304556  0.10764076  0.40689414    -0.26200
O1631       O  0.65745368  0.01949087  0.38921691    -0.58100
H1632       H  0.60585924  0.00141669  0.41874417     0.16400
O1633       O  0.62707074  0.11981298  0.43280000    -0.59600
H1634       H  0.67910894  0.13737148  0.40365222     0.14900
H1635       H  0.80395108  0.11145518  0.38445017     0.46800
H1636       H  0.67137235  0.51233689  0.40004433     0.42100
H1637       H  0.64387258  0.12842436  0.44576615     0.45600
H1638       H  0.65607027  0.10594140  0.34869807     0.37100
C1639       C  0.93986377  0.33549476  0.40676751    -0.27200
C1640       C  0.90747331  0.32796230  0.39516403     0.02400
C1641       C  0.88914345  0.34818559  0.40026743     0.30500
C1642       C  0.90366382  0.37590565  0.41647069    -0.19000
C1643       C  0.93676585  0.38429512  0.42771511    -0.28400
C1644       C  0.95451368  0.36324693  0.42290656     0.44500
C1645       C  0.89255485  0.29819713  0.37825915     0.05700
O1646       O  0.85739618  0.34157774  0.38922682    -0.56900
H1647       H  0.88944187  0.39155712  0.41977448     0.18700
O1648       O  0.98644117  0.36970079  0.43365891    -0.63600
H1649       H  0.95379100  0.31956894  0.40339983     0.17100
C1650       C  0.91547570  0.29740299  0.36130794     0.29400
C1651       C  0.90133054  0.26753622  0.34647555    -0.24500
C1652       C  0.86427620  0.23857148  0.34814148    -0.23800
C1653       C  0.84108269  0.23996044  0.36460861     0.40800
C1654       C  0.85531223  0.26944746  0.37958806    -0.26200
O1655       O  0.95183093  0.32541997  0.35928397    -0.58100
H1656       H  0.91949606  0.26659116  0.33395645     0.16400
O1657       O  0.80454851  0.21227376  0.36642354    -0.59600
H1658       H  0.83738507  0.26942381  0.39259013     0.14900
H1659       H  0.47780738  0.35314830  0.44696467     0.46800
H1660       H  0.95072909  0.34460818  0.34996730     0.42100
H1661       H  0.79055020  0.21929016  0.35598858     0.45600
H1662       H  0.86633411  0.35734759  0.37586352     0.37100
C1663       C  0.87788807  0.08335963  0.36397287    -0.27200
C1664       C  0.90858424  0.10842072  0.37665856     0.02400
C1665       C  0.92434768  0.14711305  0.37301160     0.30500
C1666       C  0.90819338  0.16014214  0.35762934    -0.19000
C1667       C  0.87640245  0.13503654  0.34577082    -0.28400
C1668       C  0.86125158  0.09638270  0.34894765     0.44500
C1669       C  0.92245422  0.09376381  0.39438060     0.05700
O1670       O  0.95457340  0.17241525  0.38497748    -0.56900
H1671       H  0.91968021  0.18997879  0.35549994     0.18700
O1672       O  0.82952432  0.07126182  0.33800894    -0.63600
H1673       H  0.86590465  0.05351569  0.36629304     0.17100
C1674       C  0.89788047  0.06948351  0.41048900     0.29400
C1675       C  0.91101976  0.05466219  0.42665612    -0.24500
C1676       C  0.94869226  0.06402580  0.42721605    -0.23800
C1677       C  0.97342865  0.08894823  0.41132874     0.40800
C1678       C  0.96021389  0.10354679  0.39508948    -0.26200
O1679       O  0.86124963  0.06114201  0.41097035    -0.58100
H1680       H  0.89170091  0.03589448  0.43883853     0.16400
O1681       O  0.01036442  0.09838218  0.41109044    -0.59600
H1682       H  0.97936919  0.12194482  0.38272150     0.14900
H1683       H  0.81074826  0.05684966  0.34941719     0.46800
H1684       H  0.84662587  0.03500001  0.40567286     0.42100
H1685       H  0.51123288  0.07878381  0.40226543     0.45600
H1686       H  0.94395289  0.17670748  0.39854821     0.37100
C1687       C  0.96044751  0.37605999  0.27589365    -0.27200
C1688       C  0.92210767  0.35286215  0.27153457     0.02400
C1689       C  0.90348743  0.36694380  0.25854885     0.30500
C1690       C  0.92327860  0.40283768  0.24953823    -0.19000
C1691       C  0.96174992  0.42539947  0.25325503    -0.28400
C1692       C  0.98018510  0.41222413  0.26699446     0.44500
C1693       C  0.90181261  0.31395191  0.28028056     0.05700
O1694       O  0.86614541  0.34540190  0.25396647    -0.56900
H1695       H  0.90878595  0.41272057  0.23897601     0.18700
O1696       O  0.51803028  0.43325242  0.27066789    -0.63600
H1697       H  0.97518393  0.36593094  0.28604086     0.17100
C1698       C  0.91467139  0.28845457  0.27626177     0.29400
C1699       C  0.89584179  0.25238549  0.28530920    -0.24500
C1700       C  0.86408097  0.24114792  0.29839678    -0.23800
C1701       C  0.85010451  0.26587922  0.30147869     0.40800
C1702       C  0.86905807  0.30198701  0.29262668    -0.26200
O1703       O  0.94593193  0.29868901  0.26377643    -0.58100
H1704       H  0.90693854  0.23367591  0.28284761     0.16400
O1705       O  0.81865324  0.25545176  0.31381518    -0.59600
H1706       H  0.85857089  0.32100787  0.29582967     0.14900
H1707       H  0.52054937  0.44804718  0.28404458     0.46800
H1708       H  0.93699207  0.29443100  0.24835119     0.42100
H1709       H  0.79745710  0.24143506  0.30359098     0.45600
H1710       H  0.86485580  0.33024832  0.24101501     0.37100
C1711       C  0.86577684  0.07277495  0.28441368    -0.27200
C1712       C  0.90426398  0.09112532  0.27972534     0.02400
C1713       C  0.92469192  0.13063684  0.28136451     0.30500
C1714       C  0.90784759  0.15002147  0.29041452    -0.19000
C1715       C  0.87018862  0.13093099  0.29632403    -0.28400
C1716       C  0.84856357  0.09271798  0.29161841     0.44500
C1717       C  0.92222254  0.06892018  0.27261603     0.05700
O1718       O  0.96037697  0.15052976  0.27325446    -0.56900
H1719       H  0.92430492  0.17990142  0.29307586     0.18700
O1720       O  0.81084360  0.07411933  0.29529321    -0.63600
H1721       H  0.84883970  0.04273466  0.28298684     0.17100
C1722       C  0.95872635  0.07846408  0.27932473     0.29400
C1723       C  0.97657461  0.06051914  0.26977279    -0.24500
C1724       C  0.95781031  0.03116804  0.25493204    -0.23800
C1725       C  0.91936637  0.01691909  0.25154898     0.40800
C1726       C  0.90231720  0.03688854  0.25943496    -0.26200
O1727       O  0.97630446  0.10381456  0.29595011    -0.58100
H1728       H  0.00532622  0.07021986  0.27367438     0.16400
O1729       O  0.89852398  0.98274745  0.24146248    -0.59600
H1730       H  0.87356177  0.02732058  0.25496910     0.14900
H1731       H  0.79967558  0.07745795  0.28163938     0.46800
H1732       H  0.00110337  0.12257930  0.29017440     0.42100
H1733       H  0.87752589  0.98303971  0.23364991     0.45600
H1734       H  0.97610611  0.16647630  0.28550161     0.37100
C1735       C  0.69820318  0.06562484  0.29417261    -0.27200
C1736       C  0.68694904  0.08480701  0.27990132     0.02400
C1737       C  0.71194643  0.12238559  0.27466745     0.30500
C1738       C  0.74728304  0.14085873  0.28454807    -0.19000
C1739       C  0.75785690  0.12222016  0.29976122    -0.28400
C1740       C  0.73352528  0.08395964  0.30402312     0.44500
C1741       C  0.64836916  0.06582561  0.27146076     0.05700
O1742       O  0.70160228  0.14152153  0.26046248    -0.56900
H1743       H  0.76583338  0.17017679  0.28104837     0.18700
O1744       O  0.74345548  0.06486425  0.31856729    -0.63600
H1745       H  0.67912969  0.03662641  0.29816486     0.17100
C1746       C  0.63684767  0.03778642  0.25542712     0.29400
C1747       C  0.60028985  0.02083848  0.24737278    -0.24500
C1748       C  0.57522138  0.03260228  0.25443959    -0.23800
C1749       C  0.58630371  0.05915771  0.27141270     0.40800
C1750       C  0.62270248  0.07558835  0.27980541    -0.26200
O1751       O  0.66144334  0.02766430  0.24704720    -0.58100
H1752       H  0.59204676  0.99977544  0.23467363     0.16400
O1753       O  0.56251807  0.07057743  0.27923016    -0.59600
H1754       H  0.63121746  0.09668053  0.29251697     0.14900
H1755       H  0.74216187  0.04355988  0.31023982     0.46800
H1756       H  0.67332048  0.04453657  0.23434692     0.42100
H1757       H  0.57109787  0.09549112  0.27256188     0.45600
H1758       H  0.70767368  0.13615301  0.24562775     0.37100
C1759       C  0.62559467  0.21053793  0.87004255    -0.27200
C1760       C  0.59803482  0.20820577  0.88450104     0.02400
C1761       C  0.58562183  0.23442761  0.88292409     0.30500
C1762       C  0.60080483  0.26240877  0.86697808    -0.19000
C1763       C  0.62824345  0.26462212  0.85256701    -0.28400
C1764       C  0.64113064  0.23888575  0.85437638     0.44500
C1765       C  0.58368433  0.17914934  0.90166374     0.05700
O1766       O  0.56069093  0.23444453  0.89784790    -0.56900
H1767       H  0.59183411  0.28306147  0.86622904     0.18700
O1768       O  0.67003289  0.24220699  0.84168030    -0.63600
H1769       H  0.63568235  0.19078202  0.87124698     0.17100
C1770       C  0.54514332  0.15465514  0.90408940     0.29400
C1771       C  0.53236126  0.12694121  0.92012963    -0.24500
C1772       C  0.55756862  0.12218773  0.93346171    -0.23800
C1773       C  0.59621579  0.14677572  0.93105577     0.40800
C1774       C  0.60895935  0.17507059  0.91528388    -0.26200
O1775       O  0.51977170  0.15658149  0.89031852    -0.58100
H1776       H  0.50256506  0.10803190  0.92142482     0.16400
O1777       O  0.62177797  0.14314111  0.94374275    -0.59600
H1778       H  0.63873348  0.19377731  0.91357147     0.13300
H1779       H  0.69305367  0.26045460  0.84947138     0.46800
H1780       H  0.51808114  0.14120481  0.87737408     0.42100
H1781       H  0.62635022  0.15970852  0.95656797     0.45600
H1782       H  0.53805022  0.22892888  0.88925476     0.37100
C1783       C  0.79734508  0.42400367  0.86451887    -0.27200
C1784       C  0.79955063  0.40237225  0.88163881     0.02400
C1785       C  0.77045340  0.36548147  0.88466286     0.30500
C1786       C  0.74005125  0.35031776  0.87027123    -0.19000
C1787       C  0.73838179  0.37148148  0.85272654    -0.28400
C1788       C  0.76681578  0.40886949  0.85017943     0.44500
C1789       C  0.83173460  0.41882006  0.89673929     0.05700
O1790       O  0.77086858  0.34469639  0.90217440    -0.56900
H1791       H  0.71785343  0.32181010  0.87269865     0.18700
O1792       O  0.76504465  0.43073732  0.83375153    -0.63600
H1793       H  0.81937342  0.45264184  0.86229324     0.17100
C1794       C  0.85528028  0.40331810  0.89886099     0.29400
C1795       C  0.88417410  0.41787058  0.91430994    -0.24500
C1796       C  0.89049343  0.44840839  0.92754574    -0.23800
C1797       C  0.86743576  0.46459799  0.92484956     0.40800
C1798       C  0.83839938  0.44977791  0.90950369    -0.26200
O1799       O  0.85030440  0.37399632  0.88586377    -0.58100
H1800       H  0.90192960  0.40545840  0.91574219     0.16400
O1801       O  0.87262653  0.49459664  0.93726438    -0.59600
H1802       H  0.82049390  0.46200327  0.90787894     0.14900
H1803       H  0.74927854  0.44066375  0.83966715     0.46800
H1804       H  0.86364403  0.38557861  0.87200472     0.42100
H1805       H  0.85714900  0.48363534  0.95057131     0.45600
H1806       H  0.77637753  0.32575974  0.89584668     0.37100
C1807       C  0.58485504  0.38373143  0.86561949    -0.27200
C1808       C  0.61009838  0.41162802  0.87988492     0.02400
C1809       C  0.64838076  0.42310600  0.87841417     0.30500
C1810       C  0.66068944  0.40617814  0.86311392    -0.19000
C1811       C  0.63536519  0.37790185  0.84908506    -0.28400
C1812       C  0.59715370  0.36654897  0.85052720     0.44500
C1813       C  0.59558349  0.42623435  0.89727168     0.05700
O1814       O  0.67344779  0.44865497  0.89298629    -0.56900
H1815       H  0.69001424  0.41424010  0.86273421     0.18700
O1816       O  0.57134658  0.33733250  0.83820326    -0.63600
H1817       H  0.55525986  0.37431708  0.86673220     0.17100
C1818       C  0.60791402  0.46466123  0.89928458     0.29400
C1819       C  0.59303104  0.47733191  0.91566084    -0.24500
C1820       C  0.56518598  0.45205762  0.92997556    -0.23800
C1821       C  0.55324585  0.41363361  0.92807805     0.40800
C1822       C  0.56835880  0.40105732  0.91182237    -0.26200
O1823       O  0.63367571  0.48993738  0.88495232    -0.58100
H1824       H  0.60242210  0.50695191  0.91664658     0.16400
O1825       O  0.52677275  0.38805178  0.94197009    -0.59600
H1826       H  0.55878834  0.37142055  0.91057173     0.14900
H1827       H  0.56241172  0.31501144  0.84772617     0.46800
H1828       H  0.61883875  0.49142281  0.87254703     0.42100
H1829       H  0.54094635  0.38683200  0.95482536     0.45600
H1830       H  0.68920344  0.47136465  0.88418100     0.37100
C1831       C  0.86900244  0.45801622  0.76840752    -0.27200
C1832       C  0.85495666  0.42069519  0.77509817     0.02400
C1833       C  0.87787434  0.40431360  0.77241168     0.30500
C1834       C  0.91382564  0.42526383  0.76339223    -0.19000
C1835       C  0.92682600  0.46185863  0.75598719    -0.28400
C1836       C  0.90427642  0.47829636  0.75862996     0.44500
C1837       C  0.81604988  0.39940873  0.78407280     0.05700
O1838       O  0.86410892  0.36697124  0.77648875    -0.56900
H1839       H  0.93048830  0.41192825  0.76062022     0.18700
O1840       O  0.91551122  0.01351716  0.75057918    -0.63600
H1841       H  0.85218539  0.47137541  0.77027024     0.17100
C1842       C  0.80758543  0.37692829  0.80302726     0.29400
C1843       C  0.77121645  0.35868521  0.81140669    -0.24500
C1844       C  0.74335825  0.36538785  0.80278191    -0.23800
C1845       C  0.75145664  0.38734303  0.78370209     0.40800
C1846       C  0.78715432  0.40334610  0.77424656    -0.26200
O1847       O  0.83496705  0.37431453  0.81438187    -0.58100
H1848       H  0.76546509  0.34090343  0.82563720     0.16400
O1849       O  0.72534281  0.39479856  0.77466921    -0.59600
H1850       H  0.79259905  0.42006367  0.75954226     0.14900
H1851       H  0.91719076  0.02909580  0.76339258     0.46800
H1852       H  0.84423229  0.39465980  0.82544707     0.42100
H1853       H  0.72889931  0.41763315  0.78226633     0.45600
H1854       H  0.88081522  0.36565949  0.78777888     0.37100
C1855       C  0.58018583  0.46046578  0.77849367    -0.27200
C1856       C  0.57411639  0.42575502  0.77035872     0.02400
C1857       C  0.54773522  0.40872493  0.75324636     0.30500
C1858       C  0.52816610  0.42578267  0.74504302    -0.19000
C1859       C  0.53664479  0.46171240  0.75185107    -0.28400
C1860       C  0.56266425  0.47889379  0.76892750     0.44500
C1861       C  0.59503360  0.40758341  0.77976011     0.05700
O1862       O  0.54176963  0.37612329  0.74362442    -0.56900
H1863       H  0.50745795  0.41151049  0.73236963     0.18700
O1864       O  0.57201221  0.51407157  0.77601322    -0.63600
H1865       H  0.59901063  0.47382201  0.79213894     0.17100
C1866       C  0.63298316  0.42879434  0.78621477     0.29400
C1867       C  0.65084335  0.41139665  0.79649814    -0.24500
C1868       C  0.63243509  0.37258292  0.79924427    -0.23800
C1869       C  0.59586621  0.35088880  0.79132297     0.40800
C1870       C  0.57703030  0.36843186  0.78242374    -0.26200
O1871       O  0.65306433  0.46656618  0.78260427    -0.58100
H1872       H  0.67914253  0.42831192  0.80252072     0.16400
O1873       O  0.57829402  0.31256540  0.79263405    -0.59600
H1874       H  0.54789422  0.35111132  0.77815621     0.14900
H1875       H  0.59098492  0.03130021  0.76551047     0.46800
H1876       H  0.66227026  0.46926884  0.76730532     0.42100
H1877       H  0.55480448  0.30453116  0.80087535     0.45600
H1878       H  0.56222763  0.38379393  0.73279233     0.37100
C1879       C  0.63464253  0.20931452  0.78444697    -0.27200
C1880       C  0.59543553  0.18656867  0.78377062     0.02400
C1881       C  0.57350123  0.20127688  0.79244552     0.30500
C1882       C  0.59059655  0.23664065  0.80242028    -0.19000
C1883       C  0.62956785  0.25898032  0.80295326    -0.28400
C1884       C  0.65161555  0.24551954  0.79338107     0.44500
C1885       C  0.57780107  0.14800744  0.77391768     0.05700
O1886       O  0.53527688  0.18156018  0.79114677    -0.56900
H1887       H  0.57332092  0.24677327  0.80972587     0.18700
O1888       O  0.68981885  0.26742010  0.79305061    -0.63600
H1889       H  0.65247180  0.19892004  0.77842195     0.17100
C1890       C  0.59188516  0.14076902  0.75452736     0.29400
C1891       C  0.57439369  0.10480777  0.74542278    -0.24500
C1892       C  0.54063454  0.07591867  0.75389468    -0.23800
C1893       C  0.52732178  0.08248371  0.77373437     0.40800
C1894       C  0.54635612  0.11789371  0.78382541    -0.26200
O1895       O  0.62096924  0.16918186  0.74333098    -0.58100
H1896       H  0.58658125  0.10009789  0.73090567     0.16400
O1897       O  0.99505760  0.05479725  0.78321122    -0.59600
H1898       H  0.53579099  0.12192612  0.79924541     0.14900
H1899       H  0.69957658  0.25460761  0.80254405     0.46800
H1900       H  0.64178492  0.16362692  0.74411292     0.42100
H1901       H  0.97616821  0.06276373  0.78117007     0.45600
H1902       H  0.52919985  0.18678750  0.77625817     0.37100
C1903       C  0.62319019  0.20541259  0.59455366    -0.27200
C1904       C  0.59351271  0.19981519  0.58075337     0.02400
C1905       C  0.57777812  0.22321729  0.58282759     0.30500
C1906       C  0.59308920  0.25294468  0.59776149    -0.19000
C1907       C  0.62339244  0.25905758  0.61101341    -0.28400
C1908       C  0.63798829  0.23469935  0.60975563     0.44500
C1909       C  0.57950610  0.16954248  0.56423441     0.05700
O1910       O  0.54682006  0.21644840  0.57081609    -0.56900
H1911       H  0.58149917  0.27146211  0.59891136     0.18700
O1912       O  0.66818367  0.24081344  0.62231069    -0.63600
H1913       H  0.63549274  0.18755089  0.59316528     0.17100
C1914       C  0.57841832  0.17690234  0.54172285     0.29400
C1915       C  0.56534808  0.14771794  0.52644416    -0.24500
C1916       C  0.55363836  0.11095353  0.53322864    -0.23800
C1917       C  0.55569249  0.10391444  0.55581357     0.40800
C1918       C  0.56856814  0.13308630  0.57100859    -0.26200
O1919       O  0.59061305  0.21260361  0.53442731    -0.58100
H1920       H  0.56434442  0.15393159  0.50925048     0.16400
O1921       O  0.54627299  0.06886677  0.56323039    -0.59600
H1922       H  0.56988852  0.12715934  0.58823039     0.14900
H1923       H  0.65831308  0.22033227  0.63327041     0.46800
H1924       H  0.61807858  0.22396660  0.53297957     0.42100
H1925       H  0.52049765  0.05826544  0.56897575     0.45600
H1926       H  0.55521459  0.23802135  0.56071861     0.37100
C1927       C  0.76659525  0.35796304  0.57657426    -0.27200
C1928       C  0.79314313  0.39599954  0.57764931     0.02400
C1929       C  0.79089671  0.41820716  0.59450623     0.30500
C1930       C  0.76197808  0.40222637  0.60992623    -0.19000
C1931       C  0.73538429  0.36412470  0.60881828    -0.28400
C1932       C  0.73774333  0.34200115  0.59194873     0.44500
C1933       C  0.82373383  0.41179289  0.56145091     0.05700
O1934       O  0.81586559  0.45580395  0.59538496    -0.56900
H1935       H  0.75974485  0.41977074  0.62240266     0.18700
O1936       O  0.71264122  0.30446536  0.59083078    -0.63600
H1937       H  0.76841746  0.34055041  0.56384461     0.17100
C1938       C  0.86070419  0.42477766  0.56818234     0.29400
C1939       C  0.88940399  0.43899833  0.55272547    -0.24500
C1940       C  0.88201190  0.44032273  0.53022156    -0.23800
C1941       C  0.84465456  0.42670091  0.52347335     0.40800
C1942       C  0.81587205  0.41253369  0.53908250    -0.26200
O1943       O  0.86904440  0.42334877  0.58986079    -0.58100
H1944       H  0.91764482  0.44894541  0.55851879     0.16400
O1945       O  0.83646867  0.92746756  0.50196679    -0.59600
H1946       H  0.78732599  0.40224964  0.53374353     0.14900
H1947       H  0.69644796  0.30134208  0.57801878     0.46800
H1948       H  0.86596653  0.39808451  0.59193488     0.42100
H1949       H  0.82947387  0.90229339  0.49624048     0.45600
H1950       H  0.83267020  0.45905128  0.60788789     0.37100
C1951       C  0.59873922  0.45340166  0.56128558    -0.27200
C1952       C  0.59716475  0.41919027  0.55752428     0.02400
C1953       C  0.58175898  0.39969456  0.53782957     0.30500
C1954       C  0.56633797  0.41373941  0.52255148    -0.19000
C1955       C  0.56599621  0.44704540  0.52689544    -0.28400
C1956       C  0.58343078  0.46746664  0.54612263     0.44500
C1957       C  0.61024627  0.40346590  0.57480090     0.05700
O1958       O  0.58044251  0.36630273  0.53379726    -0.56900
H1959       H  0.55329653  0.39786599  0.50780151     0.18700
O1960       O  0.58504091  0.50093180  0.55045284    -0.63600
H1961       H  0.61108555  0.46878241  0.57629126     0.17100
C1962       C  0.64830122  0.41472790  0.57685770     0.29400
C1963       C  0.66011991  0.39958209  0.59348507    -0.24500
C1964       C  0.63436042  0.37355024  0.60832871    -0.23800
C1965       C  0.59631774  0.36265325  0.60647242     0.40800
C1966       C  0.58444276  0.37762248  0.58967283    -0.26200
O1967       O  0.67400166  0.44026458  0.56260535    -0.58100
H1968       H  0.68942317  0.40768314  0.59461962     0.16400
O1969       O  0.57044617  0.33569779  0.62003083    -0.59600
H1970       H  0.55502977  0.36881996  0.58809584     0.14900
H1971       H  0.60784560  0.52000420  0.54288475     0.46800
H1972       H  0.67447633  0.42534487  0.54995726     0.42100
H1973       H  0.56071347  0.34875795  0.62930018     0.45600
H1974       H  0.60473103  0.37307660  0.52684611     0.37100
C1975       C  0.62047140  0.20890244  0.68188538    -0.27200
C1976       C  0.58226991  0.18544394  0.67739179     0.02400
C1977       C  0.56315926  0.19948512  0.66490024     0.30500
C1978       C  0.58238346  0.23588723  0.65653884    -0.19000
C1979       C  0.62086676  0.25879291  0.66023506    -0.28400
C1980       C  0.63971440  0.24546647  0.67352078     0.44500
C1981       C  0.56247618  0.14647684  0.68585007     0.05700
O1982       O  0.52597294  0.17734271  0.66008462    -0.56900
H1983       H  0.56754503  0.24575777  0.64626819     0.18700
O1984       O  0.67743275  0.26683091  0.67699428    -0.63600
H1985       H  0.63549109  0.19860584  0.69164225     0.17100
C1986       C  0.57376761  0.12043589  0.67994207     0.29400
C1987       C  0.55617030  0.08457492  0.68930102    -0.24500
C1988       C  0.52767101  0.07446539  0.70485237    -0.23800
C1989       C  0.51482351  0.09966750  0.70967491     0.40800
C1990       C  0.53225806  0.13535759  0.70025213    -0.26200
O1991       O  0.60265967  0.13014795  0.66552117    -0.58100
H1992       H  0.56630664  0.06546869  0.68544428     0.16400
O1993       O  0.48677080  0.09044187  0.72465475    -0.59600
H1994       H  0.52302090  0.15490684  0.70481778     0.14900
H1995       H  0.67999816  0.28217298  0.69011532     0.46800
H1996       H  0.59091544  0.12429465  0.65076613     0.42100
H1997       H  0.46363114  0.08101521  0.71580647     0.45600
H1998       H  0.52533227  0.16435518  0.64623885     0.37100
C1999       C  0.80033770  0.37193035  0.66596969    -0.27200
C2000       C  0.81050683  0.40299945  0.67960170     0.02400
C2001       C  0.78406338  0.41461197  0.68364983     0.30500
C2002       C  0.74880731  0.39618583  0.67342033    -0.19000
C2003       C  0.73936208  0.36608508  0.65908400    -0.28400
C2004       C  0.76517239  0.35348846  0.65579729     0.44500
C2005       C  0.84870493  0.42269323  0.68945575     0.05700
O2006       O  0.79242193  0.44395693  0.69752386    -0.56900
H2007       H  0.72918985  0.40607687  0.67620255     0.18700
O2008       O  0.75577840  0.32254173  0.64306875    -0.63600
H2009       H  0.82002237  0.36222534  0.66289425     0.17100
C2010       C  0.86213326  0.40291011  0.70187688     0.29400
C2011       C  0.89854715  0.42132952  0.71031530    -0.24500
C2012       C  0.92195619  0.45989474  0.70726779    -0.23800
C2013       C  0.90898995  0.47964029  0.69447699     0.40800
C2014       C  0.87256801  0.46110874  0.68575748    -0.26200
O2015       O  0.83955686  0.36563209  0.70626709    -0.58100
H2016       H  0.90828264  0.40552357  0.71974883     0.16400
O2017       O  0.93096464  0.01746589  0.69123445    -0.59600
H2018       H  0.86295773  0.47673974  0.67602341     0.14900
H2019       H  0.77392131  0.33129104  0.63077819     0.46800
H2020       H  0.82663212  0.36480326  0.72016272     0.42100
H2021       H  0.94482011  0.01984917  0.67748387     0.45600
H2022       H  0.78638484  0.43284684  0.71244338     0.37100
C2023       C  0.53926377  0.42085769  0.68003418    -0.27200
C2024       C  0.57710720  0.43364963  0.68499294     0.02400
C2025       C  0.59646824  0.46577905  0.69821378     0.30500
C2026       C  0.57788939  0.48368619  0.70672255    -0.19000
C2027       C  0.53956208  0.46944560  0.70295040    -0.28400
C2028       C  0.52044781  0.43839627  0.68900408     0.44500
C2029       C  0.59624292  0.41353751  0.67637017     0.05700
O2030       O  0.63311991  0.47887184  0.70384027    -0.56900
H2031       H  0.59288753  0.50739775  0.71758745     0.18700
O2032       O  0.48299260  0.42374643  0.68504190    -0.63600
H2033       H  0.52403277  0.39672288  0.66952931     0.17100
C2034       C  0.58092644  0.37461215  0.67918485     0.29400
C2035       C  0.59916824  0.35636850  0.67039556    -0.24500
C2036       C  0.63223704  0.37626997  0.65834544    -0.23800
C2037       C  0.64830426  0.41522232  0.65621131     0.40800
C2038       C  0.63038717  0.43354946  0.66520568    -0.26200
O2039       O  0.54851303  0.35430640  0.69081356    -0.58100
H2040       H  0.58660110  0.32634929  0.67216889     0.16400
O2041       O  0.68180729  0.43555406  0.64558255    -0.59600
H2042       H  0.64283577  0.46345602  0.66296960     0.14900
H2043       H  0.47022723  0.40606121  0.69727392     0.46800
H2044       H  0.52910916  0.33970895  0.67967761     0.42100
H2045       H  0.67620751  0.44577621  0.63226369     0.45600
H2046       H  0.63228519  0.46569341  0.71765522     0.37100
C2047       C  0.66451222  0.83368334  0.65668903     0.45900
H2048       H  0.66470806  0.83470562  0.67491679    -0.03100
C2049       C  0.66379691  0.83122599  0.61392166     0.45900
H2050       H  0.66320480  0.83012983  0.59567287    -0.03100
C2051       C  0.64736652  0.85574332  0.64572812    -0.16800
C2052       C  0.70389664  0.85001079  0.64623386    -0.16600
C2053       C  0.64186532  0.79370422  0.64710685    -0.17000
C2054       C  0.64742564  0.85427933  0.62319840    -0.16900
C2055       C  0.70291064  0.84845243  0.62364231    -0.16500
C2056       C  0.64187655  0.79304303  0.62462424    -0.16800
C2057       C  0.66817818  0.83362406  0.80432459     0.45900
H2058       H  0.66841532  0.83195660  0.78613666    -0.03100
C2059       C  0.66660706  0.83673845  0.84700681     0.45900
H2060       H  0.66585944  0.83793861  0.86523695    -0.03100
C2061       C  0.70745252  0.85228881  0.81515525    -0.16800
C2062       C  0.64938736  0.85561863  0.81324595    -0.16600
C2063       C  0.64684870  0.79496645  0.81539907    -0.17000
C2064       C  0.70596651  0.85413160  0.83771065    -0.16900
C2065       C  0.64914325  0.85733569  0.83574954    -0.16500
C2066       C  0.64612268  0.79705487  0.83783664    -0.16800
C2067       C  0.49661235  0.50084926  0.70813231     0.45900
H2068       H  0.49497019  0.50086051  0.68992159    -0.03100
C2069       C  0.50071079  0.50080069  0.75101973     0.45900
H2070       H  0.00217287  0.50013434  0.76907100    -0.03100
C2071       C  0.51896537  0.98275799  0.71696549    -0.16800
C2072       C  0.51544891  0.54015817  0.71836179    -0.16600
C2073       C  0.95813579  0.97978536  0.71941910    -0.17000
C2074       C  0.52015686  0.98170929  0.73955660    -0.16900
C2075       C  0.51890961  0.54051978  0.74096342    -0.16500
C2076       C  0.96033520  0.98012598  0.74193627    -0.16800
C2077       C  0.83171996  0.66657685  0.30094062     0.45900
H2078       H  0.83020919  0.66632186  0.28271827    -0.03100
C2079       C  0.83528300  0.66679740  0.34367601     0.45900
H2080       H  0.83731785  0.66734815  0.36187430    -0.03100
C2081       C  0.79337692  0.64370004  0.31228735    -0.16800
C2082       C  0.85494463  0.64969850  0.31007635    -0.16600
C2083       C  0.84907969  0.70601376  0.31124583    -0.17000
C2084       C  0.79545232  0.64419846  0.33487362    -0.16900
C2085       C  0.85692743  0.65016780  0.33254653    -0.16500
C2086       C  0.85038429  0.70560482  0.33375781    -0.16800
C2087       C  0.83251553  0.67047478  0.11552055     0.45900
H2088       H  0.83162645  0.67103964  0.09727599    -0.03100
C2089       C  0.83393472  0.66902622  0.15826854     0.45900
H2090       H  0.83442279  0.66866742  0.17649977    -0.03100
C2091       C  0.79420380  0.65397958  0.12600030    -0.16800
C2092       C  0.84944819  0.64773212  0.12457538    -0.16600
C2093       C  0.85536859  0.70889314  0.12562927    -0.17000
C2094       C  0.79433119  0.65292805  0.14846575    -0.16900
C2095       C  0.85000824  0.64610588  0.14718473    -0.16500
C2096       C  0.85630281  0.70861114  0.14812673    -0.16800
C2097       C  0.50165580  0.50172689  0.20870217     0.45900
H2098       H  0.50231845  0.50287217  0.19047795    -0.03100
C2099       C  0.50063883  0.49947131  0.25170178     0.45900
H2100       H  0.50004771  0.49833611  0.26993123    -0.03100
C2101       C  0.97983875  0.51908472  0.21898051    -0.16800
C2102       C  0.98404725  0.96189441  0.21822445    -0.16600
C2103       C  0.54049803  0.52298850  0.21922712    -0.17000
C2104       C  0.97888426  0.51758406  0.24156006    -0.16900
C2105       C  0.98275530  0.96087793  0.24081689    -0.16500
C2106       C  0.54027280  0.52079025  0.24177993    -0.16800
Zn2107     Zn  0.55388656  0.53156407  0.97193932     1.49700
Zn2108     Zn  0.97768082  0.95217298  0.97041470     1.49400
Zn2109     Zn  0.49989598  0.50341196  0.01266327     1.49100
Zn2110     Zn  0.97494648  0.52927708  0.97115335     1.49500
O2111       O  0.50160417  0.50389249  0.98120586    -1.83700
O2112       O  0.56600213  0.00015653  0.95213892    -0.74300
O2113       O  0.95771665  0.91408466  0.99559165    -0.74200
O2114       O  0.54987805  0.53033639  0.02574910    -0.73700
O2115       O  0.51436318  0.94462075  0.95214957    -0.74300
O2116       O  0.58927708  0.54880377  0.99780991    -0.73900
O2117       O  0.97589200  0.95219651  0.02423235    -0.74500
O2118       O  0.95248303  0.54469529  0.99564444    -0.73900
O2119       O  0.93527977  0.94303817  0.94991185    -0.74700
O2120       O  0.97103445  0.52570593  0.02457359    -0.74100
O2121       O  0.93416105  0.99639898  0.95070404    -0.74500
O2122       O  0.50878106  0.57457494  0.95407352    -0.74400
O2123       O  0.56371715  0.57680434  0.95448724    -0.74200
C2124       C  0.54777078  0.96628333  0.94579149     0.77600
C2125       C  0.96000971  0.91945621  0.01632075     0.78000
C2126       C  0.58294336  0.54655001  0.01836666     0.77000
C2127       C  0.95358930  0.54087689  0.01630708     0.77400
C2128       C  0.92159924  0.96330660  0.94358552     0.78500
C2129       C  0.54289990  0.58990037  0.94845709     0.77600
Zn2130     Zn  0.94635701  0.97634054  0.46867721     1.49700
Zn2131     Zn  0.52305496  0.97268458  0.46751058     1.49400
Zn2132     Zn  0.52675202  0.55209508  0.47013118     1.49100
Zn2133     Zn  0.49853274  0.49678850  0.51046248     1.49500
O2134       O  0.49860207  0.49945761  0.47891095    -1.83700
O2135       O  0.93452927  0.93170874  0.44938685    -0.74300
O2136       O  0.56526986  0.50587579  0.44734196    -0.74200
O2137       O  0.99479717  0.56421733  0.45051707    -0.73700
O2138       O  0.98692090  0.92876074  0.44960995    -0.74300
O2139       O  0.93903641  0.51276208  0.44971115    -0.73900
O2140       O  0.57111896  0.56200221  0.45148732    -0.74500
O2141       O  0.52181941  0.54687342  0.52388274    -0.73900
O2142       O  0.54539657  0.95555580  0.49164160    -0.74700
O2143       O  0.54385994  0.58729239  0.49643844    -0.74100
O2144       O  0.52782308  0.97420299  0.52121664    -0.74500
O2145       O  0.94711730  0.96892836  0.52258212    -0.74400
O2146       O  0.90942175  0.95865102  0.49427152    -0.74200
C2147       C  0.95334760  0.91630540  0.44331111     0.77600
C2148       C  0.58175748  0.54063841  0.44290996     0.78000
C2149       C  0.96129666  0.54619445  0.44357638     0.77000
C2150       C  0.53921590  0.58023497  0.51695401     0.77400
C2151       C  0.54530634  0.95948652  0.51238558     0.78500
C2152       C  0.91449054  0.95675450  0.51480935     0.77600
C2153       C  0.67980128  0.59345341  0.04389692    -0.27200
C2154       C  0.67086078  0.59178451  0.06621630     0.02400
C2155       C  0.63347146  0.57586027  0.07271237     0.30500
C2156       C  0.60535708  0.56161683  0.05687063    -0.19000
C2157       C  0.61393369  0.56267640  0.03440097    -0.28400
C2158       C  0.65165947  0.57882152  0.02798399     0.44500
C2159       C  0.70094922  0.60768148  0.08255841     0.05700
O2160       O  0.62437435  0.57571173  0.09440797    -0.56900
H2161       H  0.57670739  0.54982106  0.06232481     0.18700
O2162       O  0.66146196  0.58081512  0.00631151    -0.63600
H2163       H  0.70873056  0.60593495  0.03884075     0.17100
C2164       C  0.70452843  0.58491246  0.09850053     0.29400
C2165       C  0.73453312  0.60054970  0.11315831    -0.24500
C2166       C  0.76062901  0.63874176  0.11217540    -0.23800
C2167       C  0.75653765  0.66159353  0.09656376     0.40800
C2168       C  0.72683946  0.64595255  0.08178652    -0.26200
O2169       O  0.68022660  0.54711383  0.09889192    -0.58100
H2170       H  0.73812393  0.58268063  0.12481387     0.16400
O2171       O  0.78186433  0.69905339  0.09533860    -0.59600
H2172       H  0.72408383  0.66361221  0.06958677     0.14900
H2173       H  0.66258675  0.05745169  0.00377902     0.46800
H2174       H  0.66609732  0.54235083  0.11280580     0.42100
H2175       H  0.77401576  0.71090105  0.10675974     0.45600
H2176       H  0.61184448  0.54912498  0.09899086     0.37100
C2177       C  0.90934231  0.77253351  0.07860881    -0.27200
C2178       C  0.89989197  0.80068086  0.08049296     0.02400
C2179       C  0.87755034  0.80001377  0.09815853     0.30500
C2180       C  0.86417196  0.77067752  0.11336640    -0.19000
C2181       C  0.87350112  0.74234638  0.11137778    -0.28400
C2182       C  0.89657994  0.74367528  0.09397543     0.44500
C2183       C  0.91432025  0.83089356  0.06405082     0.05700
O2184       O  0.86703827  0.82674238  0.09992903    -0.56900
H2185       H  0.84540009  0.76934280  0.12620173     0.18700
O2186       O  0.90620780  0.71641604  0.09161086    -0.63600
H2187       H  0.92685673  0.77304801  0.06520088     0.17100
C2188       C  0.93939716  0.86776927  0.07030518     0.29400
C2189       C  0.95400351  0.89589515  0.05451020    -0.24500
C2190       C  0.94429536  0.88799516  0.03215503    -0.23800
C2191       C  0.91930183  0.85082763  0.02587949     0.40800
C2192       C  0.90471356  0.82254981  0.04180702    -0.26200
O2193       O  0.95030142  0.87652822  0.09179799    -0.58100
H2194       H  0.97334994  0.92407706  0.05989665     0.16400
O2195       O  0.90884303  0.84177695  0.00436781    -0.59600
H2196       H  0.88566165  0.79403418  0.03683027     0.14900
H2197       H  0.93291554  0.72845285  0.09585664     0.46800
H2198       H  0.47268971  0.87121604  0.09326897     0.42100
H2199       H  0.88596452  0.84378558  0.00262637     0.45600
H2200       H  0.88128443  0.84246091  0.11262325     0.37100
C2201       C  0.91486885  0.62369041  0.09417819    -0.27200
C2202       C  0.89172054  0.60233231  0.07684007     0.02400
C2203       C  0.85482016  0.59528493  0.07554367     0.30500
C2204       C  0.84130256  0.60954305  0.09162480    -0.19000
C2205       C  0.86436648  0.63105108  0.10898532    -0.28400
C2206       C  0.90154477  0.63848386  0.11012215     0.44500
C2207       C  0.90582029  0.58588093  0.06080308     0.05700
O2208       O  0.83150621  0.57342924  0.05906186    -0.56900
H2209       H  0.81263274  0.60368616  0.09060920     0.18700
O2210       O  0.92496110  0.66004131  0.12665027    -0.63600
H2211       H  0.94335376  0.62902843  0.09522489     0.17100
C2212       C  0.91416813  0.59937680  0.03917461     0.29400
C2213       C  0.92853811  0.58364516  0.02446143    -0.24500
C2214       C  0.93509929  0.55478081  0.03126078    -0.23800
C2215       C  0.92569024  0.54079629  0.05289471     0.40800
C2216       C  0.91119302  0.55643522  0.06744733    -0.26200
O2217       O  0.90894703  0.62825532  0.03243332    -0.58100
H2218       H  0.93562407  0.59481101  0.00796354     0.16400
O2219       O  0.92972682  0.51128434  0.05985291    -0.59600
H2220       H  0.90421490  0.54563190  0.08403815     0.14900
H2221       H  0.93658370  0.68610145  0.12128088     0.46800
H2222       H  0.43226466  0.65108663  0.03583629     0.42100
H2223       H  0.95372862  0.02317965  0.06898766     0.45600
H2224       H  0.83219634  0.59124143  0.04786179     0.37100
C2225       C  0.93554410  0.80016671  0.16814596    -0.27200
C2226       C  0.91607089  0.81657320  0.17763687     0.02400
C2227       C  0.87681198  0.79548345  0.17927221     0.30500
C2228       C  0.85762375  0.75896766  0.17105362    -0.19000
C2229       C  0.87712196  0.74326649  0.16095443    -0.28400
C2230       C  0.91632115  0.76376488  0.15984997     0.44500
C2231       C  0.93686386  0.85551346  0.18593402     0.05700
O2232       O  0.85690246  0.81060571  0.18844135    -0.56900
H2233       H  0.82737105  0.74357103  0.17154868     0.18700
O2234       O  0.93588811  0.74911560  0.14965852    -0.63600
H2235       H  0.96565429  0.81601539  0.16659018     0.17100
C2236       C  0.96583958  0.86613775  0.20136312     0.29400
C2237       C  0.98293900  0.90200478  0.21041920    -0.24500
C2238       C  0.97103610  0.92753052  0.20475313    -0.23800
C2239       C  0.94399585  0.91791097  0.18818661     0.40800
C2240       C  0.92700410  0.88203272  0.17893529    -0.26200
O2241       O  0.97560634  0.84076216  0.20895350    -0.58100
H2242       H  0.50421256  0.90918383  0.22276448     0.16400
O2243       O  0.93209503  0.94228599  0.18202170    -0.59600
H2244       H  0.90535035  0.87454843  0.16667606     0.14900
H2245       H  0.93721371  0.73190692  0.16055434     0.46800
H2246       H  0.50000623  0.84797685  0.20203641     0.42100
H2247       H  0.94621830  0.95439237  0.16846871     0.45600
H2248       H  0.85531419  0.80444965  0.20426696     0.37100
C2249       C  0.96115084  0.59261652  0.19382832    -0.27200
C2250       C  0.92319453  0.57116472  0.18784918     0.02400
C2251       C  0.90565843  0.53184573  0.19029095     0.30500
C2252       C  0.92577877  0.51515079  0.19826760    -0.19000
C2253       C  0.96236683  0.53688200  0.20590075    -0.28400
C2254       C  0.98032970  0.57584368  0.20327721     0.44500
C2255       C  0.90241600  0.58966563  0.17880574     0.05700
O2256       O  0.86832639  0.50935656  0.18602655    -0.56900
H2257       H  0.91164506  0.48511117  0.20012324     0.18700
O2258       O  0.51640517  0.59769383  0.21051405    -0.63600
H2259       H  0.97608833  0.62254923  0.19138102     0.17100
C2260       C  0.90749253  0.62399201  0.18717534     0.29400
C2261       C  0.88909937  0.64141259  0.17734981    -0.24500
C2262       C  0.86463495  0.62471050  0.15960481    -0.23800
C2263       C  0.85668095  0.58877389  0.15283061     0.40800
C2264       C  0.87682092  0.57265664  0.16150048    -0.26200
O2265       O  0.92944620  0.64020243  0.20531921    -0.58100
H2266       H  0.89477152  0.66852038  0.18329390     0.16400
O2267       O  0.82960066  0.56923882  0.13743120    -0.59600
H2268       H  0.87237594  0.54671959  0.15435704     0.14900
H2269       H  0.53215779  0.59877436  0.19793645     0.46800
H2270       H  0.95099483  0.66381886  0.20003642     0.42100
H2271       H  0.80646645  0.55391093  0.14595032     0.45600
H2272       H  0.85541158  0.51012848  0.19958493     0.37100
C2273       C  0.71015747  0.58656782  0.18222609    -0.27200
C2274       C  0.68593791  0.60086987  0.17838671     0.02400
C2275       C  0.69916540  0.63444087  0.16653629     0.30500
C2276       C  0.73561439  0.65263766  0.15831997    -0.19000
C2277       C  0.75931849  0.63759966  0.16141110    -0.28400
C2278       C  0.74659782  0.60464293  0.17374355     0.44500
C2279       C  0.64726305  0.58122944  0.18719240     0.05700
O2280       O  0.67625499  0.64905028  0.16227591    -0.56900
H2281       H  0.74492397  0.67776191  0.14861135     0.18700
O2282       O  0.76894519  0.58903063  0.17675344    -0.63600
H2283       H  0.70062888  0.56109021  0.19159969     0.17100
C2284       C  0.62198675  0.54362207  0.18189245     0.29400
C2285       C  0.58614526  0.52548194  0.19125219    -0.24500
C2286       C  0.57540930  0.54423149  0.20626049    -0.23800
C2287       C  0.60007059  0.58226995  0.21078287     0.40800
C2288       C  0.63560986  0.60044690  0.20122418    -0.26200
O2289       O  0.63190978  0.52463370  0.16734325    -0.58100
H2290       H  0.56741297  0.99651309  0.18732018     0.16400
O2291       O  0.58940374  0.60177947  0.22449174    -0.59600
H2292       H  0.65453733  0.62946647  0.20527004     0.14900
H2293       H  0.76293260  0.57137279  0.16433925     0.46800
H2294       H  0.63770480  0.50824583  0.17651636     0.42100
H2295       H  0.60825903  0.61177392  0.23643702     0.45600
H2296       H  0.66326128  0.63708336  0.14837361     0.37100
C2297       C  0.73230170  0.59095838  0.38269028    -0.27200
C2298       C  0.70258393  0.59797138  0.37972615     0.02400
C2299       C  0.70310160  0.61965669  0.36170285     0.30500
C2300       C  0.73319307  0.63420047  0.34708328    -0.19000
C2301       C  0.76296519  0.62716983  0.35003231    -0.28400
C2302       C  0.76246325  0.60559209  0.36813195     0.44500
C2303       C  0.67165548  0.58320324  0.39582537     0.05700
O2304       O  0.67436174  0.62686036  0.35828207    -0.56900
H2305       H  0.73353178  0.65151298  0.33359166     0.18700
O2306       O  0.79077525  0.59770391  0.37137216    -0.63600
H2307       H  0.73244870  0.57457468  0.39657693     0.17100
C2308       C  0.65109291  0.54478076  0.40052548     0.29400
C2309       C  0.62218829  0.53148396  0.41594171    -0.24500
C2310       C  0.61336186  0.55604787  0.42709940    -0.23800
C2311       C  0.63433314  0.59468760  0.42241563     0.40800
C2312       C  0.66307580  0.60786066  0.40688168    -0.26200
O2313       O  0.65801952  0.51985152  0.38942485    -0.58100
H2314       H  0.60641580  0.50167821  0.41895398     0.16400
O2315       O  0.62683667  0.61989876  0.43265807    -0.59600
H2316       H  0.67899129  0.63758046  0.40358036     0.14900
H2317       H  0.80427583  0.61193574  0.38465949     0.46800
H2318       H  0.67080908  0.01190291  0.39978958     0.42100
H2319       H  0.64355705  0.62864873  0.44565762     0.45600
H2320       H  0.65623352  0.60604962  0.34891121     0.37100
C2321       C  0.93950960  0.83535637  0.40694826    -0.27200
C2322       C  0.90722205  0.82795189  0.39527387     0.02400
C2323       C  0.88892340  0.84821652  0.40035930     0.30500
C2324       C  0.90344008  0.87592469  0.41657425    -0.19000
C2325       C  0.93649388  0.88423957  0.42784606    -0.28400
C2326       C  0.95414343  0.86307845  0.42309936     0.44500
C2327       C  0.89239315  0.79827289  0.37831501     0.05700
O2328       O  0.85723073  0.84167619  0.38928082    -0.56900
H2329       H  0.88928214  0.89164709  0.41985082     0.18700
O2330       O  0.98596716  0.86939660  0.43392514    -0.63600
H2331       H  0.95338077  0.81936468  0.40361857     0.17100
C2332       C  0.91544566  0.79747841  0.36144443     0.29400
C2333       C  0.90138955  0.76765495  0.34658030    -0.24500
C2334       C  0.86431364  0.73871963  0.34815187    -0.23800
C2335       C  0.84099662  0.74010383  0.36453865     0.40800
C2336       C  0.85512176  0.76956246  0.37953578    -0.26200
O2337       O  0.95184979  0.82543942  0.35954520    -0.58100
H2338       H  0.91963872  0.76670913  0.33411767     0.16400
O2339       O  0.80444604  0.71242423  0.36626668    -0.59600
H2340       H  0.83709640  0.76952529  0.39247970     0.14900
H2341       H  0.47787277  0.85334392  0.44665417     0.46800
H2342       H  0.95099977  0.84428097  0.34977976     0.42100
H2343       H  0.79051956  0.71950780  0.35581866     0.45600
H2344       H  0.86622867  0.85792639  0.37611149     0.37100
C2345       C  0.87786524  0.58356297  0.36412991    -0.27200
C2346       C  0.90872432  0.60861268  0.37670453     0.02400
C2347       C  0.92475232  0.64728895  0.37290365     0.30500
C2348       C  0.90865106  0.66034104  0.35750112    -0.19000
C2349       C  0.87668208  0.63525961  0.34576869    -0.28400
C2350       C  0.86131212  0.59661116  0.34906864     0.44500
C2351       C  0.92251625  0.59395877  0.39445445     0.05700
O2352       O  0.95519323  0.67255805  0.38473569    -0.56900
H2353       H  0.92031763  0.69017928  0.35526145     0.18700
O2354       O  0.82947731  0.57153834  0.33819497    -0.63600
H2355       H  0.86570390  0.55372329  0.36656392     0.17100
C2356       C  0.89796364  0.57005266  0.41069710     0.29400
C2357       C  0.91098855  0.55510847  0.42685381    -0.24500
C2358       C  0.94852721  0.56400972  0.42726117    -0.23800
C2359       C  0.97324907  0.58856291  0.41124224     0.40800
C2360       C  0.96014828  0.60327846  0.39501615    -0.26200
O2361       O  0.86148426  0.56218962  0.41130361    -0.58100
H2362       H  0.89170360  0.53661951  0.43914369     0.16400
O2363       O  0.01003687  0.59747898  0.41085596    -0.59600
H2364       H  0.97926848  0.62137425  0.38253751     0.14900
H2365       H  0.81078201  0.55710499  0.34963561     0.46800
H2366       H  0.84653019  0.53603356  0.40608173     0.42100
H2367       H  0.51112425  0.57830548  0.40205488     0.45600
H2368       H  0.94478972  0.67728180  0.39825820     0.37100
C2369       C  0.96047676  0.87590408  0.27580121    -0.27200
C2370       C  0.92211799  0.85281801  0.27145924     0.02400
C2371       C  0.90350251  0.86707009  0.25861651     0.30500
C2372       C  0.92332333  0.90302642  0.24970347    -0.19000
C2373       C  0.96181178  0.92549053  0.25339869    -0.28400
C2374       C  0.98023893  0.91215290  0.26702341     0.44500
C2375       C  0.90175603  0.81390110  0.28015900     0.05700
O2376       O  0.86612503  0.84564829  0.25409456    -0.56900
H2377       H  0.90884495  0.91303049  0.23921943     0.18700
O2378       O  0.51768956  0.93338511  0.27078512    -0.63600
H2379       H  0.97519586  0.86563302  0.28585171     0.17100
C2380       C  0.91435183  0.78825126  0.27595742     0.29400
C2381       C  0.89556253  0.75223192  0.28507203    -0.24500
C2382       C  0.86408032  0.74120251  0.29837956    -0.23800
C2383       C  0.85027323  0.76604892  0.30157601     0.40800
C2384       C  0.86922293  0.80211752  0.29268664    -0.26200
O2385       O  0.94531227  0.79829416  0.26322579    -0.58100
H2386       H  0.90648074  0.73340187  0.28248120     0.16400
O2387       O  0.81899679  0.75577448  0.31405151    -0.59600
H2388       H  0.85891682  0.82125373  0.29600267     0.14900
H2389       H  0.52006262  0.94839277  0.28403673     0.46800
H2390       H  0.93591726  0.79330032  0.24789481     0.42100
H2391       H  0.79765351  0.74150110  0.30396295     0.45600
H2392       H  0.86471020  0.83052418  0.24110932     0.37100
C2393       C  0.86586514  0.57285819  0.28447033    -0.27200
C2394       C  0.90431930  0.59118375  0.27969841     0.02400
C2395       C  0.92476598  0.63069996  0.28127358     0.30500
C2396       C  0.90798906  0.65013296  0.29034784    -0.19000
C2397       C  0.87036740  0.63107206  0.29634392    -0.28400
C2398       C  0.84870767  0.59283756  0.29170340     0.44500
C2399       C  0.92222859  0.56894585  0.27257482     0.05700
O2400       O  0.96039649  0.65054139  0.27307735    -0.56900
H2401       H  0.92446658  0.68002549  0.29295558     0.18700
O2402       O  0.81100754  0.57426638  0.29544567    -0.63600
H2403       H  0.84891702  0.54281274  0.28308158     0.17100
C2404       C  0.95874014  0.57847478  0.27925559     0.29400
C2405       C  0.97654316  0.56049068  0.26969679    -0.24500
C2406       C  0.95772297  0.53112091  0.25487489    -0.23800
C2407       C  0.91928159  0.51691344  0.25150213     0.40800
C2408       C  0.90227340  0.53691003  0.25940621    -0.26200
O2409       O  0.97637575  0.60386491  0.29585455    -0.58100
H2410       H  0.00531199  0.57018762  0.27356470     0.16400
O2411       O  0.89840244  0.48276223  0.24140068    -0.59600
H2412       H  0.87351262  0.52736696  0.25496314     0.14900
H2413       H  0.79978247  0.57766814  0.28183591     0.46800
H2414       H  0.00115252  0.62261715  0.29004531     0.42100
H2415       H  0.87745340  0.48312187  0.23356952     0.45600
H2416       H  0.97621455  0.66653488  0.28528340     0.37100
C2417       C  0.69830327  0.56576672  0.29430384    -0.27200
C2418       C  0.68707656  0.58497911  0.28003408     0.02400
C2419       C  0.71211214  0.62254842  0.27480093     0.30500
C2420       C  0.74746139  0.64097399  0.28466473    -0.19000
C2421       C  0.75801374  0.62230655  0.29986794    -0.28400
C2422       C  0.73363591  0.58406269  0.30414653     0.44500
C2423       C  0.64849670  0.56603852  0.27158206     0.05700
O2424       O  0.70179950  0.64172049  0.26060490    -0.56900
H2425       H  0.76604291  0.67028359  0.28115878     0.18700
O2426       O  0.74353462  0.56494732  0.31869481    -0.63600
H2427       H  0.67920172  0.53677758  0.29830103     0.17100
C2428       C  0.63689507  0.53784941  0.25563648     0.29400
C2429       C  0.60034039  0.52092844  0.24757350    -0.24500
C2430       C  0.57534684  0.53284353  0.25454967    -0.23800
C2431       C  0.58652244  0.55959866  0.27141533     0.40800
C2432       C  0.62291606  0.57600963  0.27981493    -0.26200
O2433       O  0.66141447  0.52755402  0.24734479    -0.58100
H2434       H  0.59203745  0.49974782  0.23494183     0.16400
O2435       O  0.56282990  0.57121602  0.27912352    -0.59600
H2436       H  0.63149298  0.59723748  0.29244791     0.14900
H2437       H  0.74226303  0.54365848  0.31036085     0.46800
H2438       H  0.67338521  0.54435617  0.23462882     0.42100
H2439       H  0.57135406  0.59597993  0.27226131     0.45600
H2440       H  0.70799808  0.63647168  0.24577390     0.37100
C2441       C  0.62568984  0.71083568  0.87023257    -0.27200
C2442       C  0.59821639  0.70853389  0.88474936     0.02400
C2443       C  0.58584732  0.73479748  0.88324374     0.30500
C2444       C  0.60093478  0.76275113  0.86727676    -0.19000
C2445       C  0.62825050  0.76489875  0.85278658    -0.28400
C2446       C  0.64114653  0.73916325  0.85455436     0.44500
C2447       C  0.58385843  0.67941630  0.90187125     0.05700
O2448       O  0.56103851  0.73485924  0.89824383    -0.56900
H2449       H  0.59196761  0.78341247  0.86655848     0.18700
O2450       O  0.66996130  0.74244493  0.84178771    -0.63600
H2451       H  0.63575311  0.69105511  0.87138874     0.17100
C2452       C  0.54531211  0.65494938  0.90429161     0.29400
C2453       C  0.53251051  0.62715522  0.92028166    -0.24500
C2454       C  0.55770415  0.62230370  0.93356616    -0.23800
C2455       C  0.59635697  0.64686589  0.93116746     0.40800
C2456       C  0.60912228  0.67523390  0.91544269    -0.26200
O2457       O  0.51995521  0.65698797  0.89056207    -0.58100
H2458       H  0.50270957  0.60826732  0.92157525     0.16400
O2459       O  0.62190029  0.64314637  0.94382292    -0.59600
H2460       H  0.63890064  0.69391867  0.91373011     0.13300
H2461       H  0.69303654  0.76074569  0.84951182     0.46800
H2462       H  0.51803373  0.64145059  0.87765261     0.42100
H2463       H  0.62642373  0.65959817  0.95670073     0.45600
H2464       H  0.53834839  0.72937404  0.88971320     0.37100
C2465       C  0.79750248  0.92392046  0.86441622    -0.27200
C2466       C  0.79982342  0.90224384  0.88146951     0.02400
C2467       C  0.77075343  0.86533103  0.88448497     0.30500
C2468       C  0.74023875  0.85022236  0.87017108    -0.19000
C2469       C  0.73845030  0.87144900  0.85270159    -0.28400
C2470       C  0.76688006  0.90883176  0.85014801     0.44500
C2471       C  0.83203330  0.91872613  0.89655726     0.05700
O2472       O  0.77128723  0.84448158  0.90192774    -0.56900
H2473       H  0.71804136  0.82171692  0.87260238     0.18700
O2474       O  0.76499856  0.93074823  0.83379022    -0.63600
H2475       H  0.81950289  0.95257270  0.86219683     0.17100
C2476       C  0.85558947  0.90323840  0.89870927     0.29400
C2477       C  0.88446137  0.91781365  0.91417597    -0.24500
C2478       C  0.89075642  0.94836627  0.92739463    -0.23800
C2479       C  0.86774163  0.96458900  0.92463021     0.40800
C2480       C  0.83871747  0.94973375  0.90927899    -0.26200
O2481       O  0.85064211  0.87390349  0.88573344    -0.58100
H2482       H  0.90220346  0.90539206  0.91564645     0.16400
O2483       O  0.87295774  0.99465600  0.93698464    -0.59600
H2484       H  0.82082779  0.96197155  0.90762075     0.14900
H2485       H  0.74934439  0.94072607  0.83981306     0.46800
H2486       H  0.86359470  0.88543373  0.87177053     0.42100
H2487       H  0.85739503  0.98376875  0.95026946     0.45600
H2488       H  0.77672204  0.82554928  0.89551490     0.37100
C2489       C  0.58527663  0.88470833  0.86539221    -0.27200
C2490       C  0.61049078  0.91230259  0.87981323     0.02400
C2491       C  0.64870469  0.92342383  0.87852239     0.30500
C2492       C  0.66095901  0.90640492  0.86325338    -0.19000
C2493       C  0.63564100  0.87837464  0.84909397    -0.28400
C2494       C  0.59750424  0.86741239  0.85034795     0.44500
C2495       C  0.59593668  0.92681131  0.89722259     0.05700
O2496       O  0.67370867  0.94865928  0.89324667    -0.56900
H2497       H  0.69021255  0.91417595  0.86300938     0.18700
O2498       O  0.57164903  0.83839401  0.83792735    -0.63600
H2499       H  0.55572634  0.87556362  0.86637186     0.17100
C2500       C  0.60854649  0.96525819  0.89947247     0.29400
C2501       C  0.59356579  0.97780334  0.91585954    -0.24500
C2502       C  0.56535998  0.95238769  0.92994450    -0.23800
C2503       C  0.55314188  0.91393744  0.92780552     0.40800
C2504       C  0.56835505  0.90149045  0.91154755    -0.26200
O2505       O  0.63467804  0.99068446  0.88536022    -0.58100
H2506       H  0.60317746  0.00745154  0.91702935     0.16400
O2507       O  0.52627217  0.88819624  0.94144741    -0.59600
H2508       H  0.55856524  0.87183123  0.91011042     0.14900
H2509       H  0.56320352  0.81583893  0.84718795     0.46800
H2510       H  0.62013595  0.99269382  0.87295996     0.42100
H2511       H  0.54011092  0.88652201  0.95434214     0.45600
H2512       H  0.68974004  0.97142805  0.88455432     0.37100
C2513       C  0.86890906  0.95818139  0.76860059    -0.27200
C2514       C  0.85480006  0.92079627  0.77518352     0.02400
C2515       C  0.87765024  0.90436464  0.77238335     0.30500
C2516       C  0.91359408  0.92532468  0.76336636    -0.19000
C2517       C  0.92663448  0.96196608  0.75604534    -0.28400
C2518       C  0.90416179  0.97846352  0.75879723     0.44500
C2519       C  0.81588421  0.89948403  0.78413851     0.05700
O2520       O  0.86381934  0.86697599  0.77633331    -0.56900
H2521       H  0.93021509  0.91196474  0.76052203     0.18700
O2522       O  0.91557416  0.51328494  0.75032514    -0.63600
H2523       H  0.85215324  0.97158811  0.77055795     0.17100
C2524       C  0.80733330  0.87670959  0.80297117     0.29400
C2525       C  0.77094852  0.85840800  0.81131915    -0.24500
C2526       C  0.74317372  0.86531639  0.80279483    -0.23800
C2527       C  0.75135180  0.88758274  0.78385143     0.40800
C2528       C  0.78705854  0.90365682  0.77441098    -0.26200
O2529       O  0.83464643  0.87386797  0.81425459    -0.58100
H2530       H  0.76512393  0.84044645  0.82547169     0.16400
O2531       O  0.72531541  0.89529054  0.77496327    -0.59600
H2532       H  0.79256303  0.92060606  0.75980382     0.14900
H2533       H  0.91733049  0.52895700  0.76310560     0.46800
H2534       H  0.84394314  0.89407834  0.82540732     0.42100
H2535       H  0.72896731  0.91804827  0.78270150     0.45600
H2536       H  0.88053544  0.86552058  0.78756093     0.37100
C2537       C  0.58001744  0.96037772  0.77846409    -0.27200
C2538       C  0.57405049  0.92572345  0.77029008     0.02400
C2539       C  0.54775553  0.90873716  0.75313007     0.30500
C2540       C  0.52820195  0.92579975  0.74490687    -0.19000
C2541       C  0.53661735  0.96169675  0.75174618    -0.28400
C2542       C  0.56253276  0.97882302  0.76887704     0.44500
C2543       C  0.59501441  0.90759667  0.77969372     0.05700
O2544       O  0.54186267  0.87618169  0.74347956    -0.56900
H2545       H  0.50756248  0.91156147  0.73219354     0.18700
O2546       O  0.57182413  0.01396922  0.77599574    -0.63600
H2547       H  0.59874409  0.97368775  0.79215516     0.17100
C2548       C  0.63290089  0.92888438  0.78626304     0.29400
C2549       C  0.65077553  0.91154353  0.79659134    -0.24500
C2550       C  0.63248005  0.87271725  0.79924975    -0.23800
C2551       C  0.59602140  0.85095566  0.79117875     0.40800
C2552       C  0.57713352  0.86842833  0.78225807    -0.26200
O2553       O  0.65291006  0.96667964  0.78272276    -0.58100
H2554       H  0.67900033  0.92851198  0.80271369     0.16400
O2555       O  0.57855694  0.81263357  0.79241338    -0.59600
H2556       H  0.54804669  0.85103254  0.77790941     0.14900
H2557       H  0.59109350  0.53135581  0.76547580     0.46800
H2558       H  0.66216851  0.96948837  0.76743101     0.42100
H2559       H  0.55527077  0.80454075  0.80088016     0.45600
H2560       H  0.56231867  0.88391689  0.73263966     0.37100
C2561       C  0.63441422  0.70934707  0.78464783    -0.27200
C2562       C  0.59521488  0.68650283  0.78406363     0.02400
C2563       C  0.57325911  0.70110551  0.79285141     0.30500
C2564       C  0.59034532  0.73650449  0.80278963    -0.19000
C2565       C  0.62931094  0.75896896  0.80318215    -0.28400
C2566       C  0.65135917  0.74557512  0.79353797     0.44500
C2567       C  0.57763425  0.64798039  0.77415334     0.05700
O2568       O  0.53502619  0.68126434  0.79168998    -0.56900
H2569       H  0.57306777  0.74657911  0.81016123     0.18700
O2570       O  0.68954757  0.76756461  0.79309562    -0.63600
H2571       H  0.65227164  0.69902401  0.77856997     0.17100
C2572       C  0.59174135  0.64087731  0.75472551     0.29400
C2573       C  0.57435709  0.60495088  0.74558145    -0.24500
C2574       C  0.54063828  0.57596543  0.75402449    -0.23800
C2575       C  0.52729350  0.58239462  0.77389656     0.40800
C2576       C  0.54624877  0.61776637  0.78403989    -0.26200
O2577       O  0.62074546  0.66938423  0.74353358    -0.58100
H2578       H  0.58661774  0.60034326  0.73106601     0.16400
O2579       O  0.99528614  0.55476400  0.78308003    -0.59600
H2580       H  0.53567492  0.62167955  0.79948860     0.14900
H2581       H  0.69943537  0.75490510  0.80261790     0.46800
H2582       H  0.64161265  0.66389792  0.74424447     0.42100
H2583       H  0.97631698  0.56259434  0.78092675     0.45600
H2584       H  0.52875046  0.68656977  0.77687541     0.37100
C2585       C  0.62352561  0.70538670  0.59465563    -0.27200
C2586       C  0.59386656  0.69975321  0.58083124     0.02400
C2587       C  0.57808659  0.72311669  0.58285938     0.30500
C2588       C  0.59334973  0.75286996  0.59776690    -0.19000
C2589       C  0.62365684  0.75904642  0.61103069    -0.28400
C2590       C  0.63829159  0.73471674  0.60982785     0.44500
C2591       C  0.57993190  0.66951338  0.56431076     0.05700
O2592       O  0.54714830  0.71630127  0.57081260    -0.56900
H2593       H  0.58173425  0.77137017  0.59887901     0.18700
O2594       O  0.66848803  0.74090067  0.62240444    -0.63600
H2595       H  0.63584387  0.68753453  0.59330058     0.17100
C2596       C  0.57907094  0.67694377  0.54179276     0.29400
C2597       C  0.56594028  0.64777449  0.52650653    -0.24500
C2598       C  0.55394788  0.61095558  0.53329644    -0.23800
C2599       C  0.55580491  0.60385063  0.55589565     0.40800
C2600       C  0.56874845  0.63301451  0.57109606    -0.26200
O2601       O  0.59152167  0.71269612  0.53450547    -0.58100
H2602       H  0.56510964  0.65404339  0.50930458     0.16400
O2603       O  0.54609311  0.56873653  0.56332787    -0.59600
H2604       H  0.56990159  0.62704677  0.58832933     0.14900
H2605       H  0.65863142  0.72044103  0.63337875     0.46800
H2606       H  0.61897792  0.72390020  0.53311018     0.42100
H2607       H  0.52028640  0.55828593  0.56899474     0.45600
H2608       H  0.55558681  0.73778639  0.56064263     0.37100
C2609       C  0.76717699  0.85827519  0.57672679    -0.27200
C2610       C  0.79359702  0.89635825  0.57779608     0.02400
C2611       C  0.79110471  0.91853658  0.59458187     0.30500
C2612       C  0.76209716  0.90247425  0.60994482    -0.19000
C2613       C  0.73563645  0.86432804  0.60884253    -0.28400
C2614       C  0.73822104  0.84223955  0.59203559     0.44500
C2615       C  0.82424989  0.91224826  0.56163130     0.05700
O2616       O  0.81589603  0.95618055  0.59543017    -0.56900
H2617       H  0.75968076  0.91999079  0.62236619     0.18700
O2618       O  0.71323623  0.80467284  0.59091676    -0.63600
H2619       H  0.76916921  0.84088742  0.56404539     0.17100
C2620       C  0.86126128  0.92559401  0.56841555     0.29400
C2621       C  0.88999189  0.93979102  0.55297160    -0.24500
C2622       C  0.88259310  0.94075012  0.53043492    -0.23800
C2623       C  0.84520975  0.92685499  0.52364476     0.40800
C2624       C  0.81640197  0.91269527  0.53923506    -0.26200
O2625       O  0.86961257  0.92452067  0.59013157    -0.58100
H2626       H  0.91825881  0.95000448  0.55879893     0.16400
O2627       O  0.83592792  0.42764175  0.50182872    -0.59600
H2628       H  0.78783641  0.90216169  0.53385495     0.14900
H2629       H  0.69707687  0.80147298  0.57807398     0.46800
H2630       H  0.86686625  0.89941546  0.59233315     0.42100
H2631       H  0.82896317  0.40256276  0.49595185     0.45600
H2632       H  0.83258489  0.95960163  0.60802781     0.37100
C2633       C  0.59689299  0.95242882  0.56183669    -0.27200
C2634       C  0.59743499  0.91945217  0.55734413     0.02400
C2635       C  0.58401609  0.90127813  0.53706844     0.30500
C2636       C  0.56834690  0.91526907  0.52191691    -0.19000
C2637       C  0.56589296  0.94727002  0.52692903    -0.28400
C2638       C  0.58149833  0.96653734  0.54677278     0.44500
C2639       C  0.61046987  0.90348577  0.57449308     0.05700
O2640       O  0.58472044  0.86907358  0.53235351    -0.56900
H2641       H  0.55679804  0.90031058  0.50669514     0.18700
O2642       O  0.58127165  0.99890426  0.55179764    -0.63600
H2643       H  0.60773888  0.96682629  0.57730265     0.17100
C2644       C  0.64840042  0.91412661  0.57627164     0.29400
C2645       C  0.66018666  0.89896578  0.59291073    -0.24500
C2646       C  0.63450382  0.87344835  0.60799792    -0.23800
C2647       C  0.59656730  0.86309448  0.60636787     0.40800
C2648       C  0.58474984  0.87817985  0.58960494    -0.26200
O2649       O  0.67403379  0.93925452  0.56182776    -0.58100
H2650       H  0.68940687  0.90669399  0.59388466     0.16400
O2651       O  0.57069736  0.83653067  0.62011116    -0.59600
H2652       H  0.55542319  0.86985093  0.58823092     0.14900
H2653       H  0.60398740  0.01913154  0.54476026     0.46800
H2654       H  0.67484175  0.92393020  0.54950904     0.42100
H2655       H  0.56101146  0.84985509  0.62918314     0.45600
H2656       H  0.60952986  0.87747157  0.52563276     0.37100
C2657       C  0.62075759  0.70913087  0.68193770    -0.27200
C2658       C  0.58256499  0.68558527  0.67744738     0.02400
C2659       C  0.56341028  0.69954872  0.66492503     0.30500
C2660       C  0.58257191  0.73594362  0.65654016    -0.19000
C2661       C  0.62104213  0.75893401  0.66023729    -0.28400
C2662       C  0.63993836  0.74568739  0.67354595     0.44500
C2663       C  0.56281797  0.64661423  0.68593792     0.05700
O2664       O  0.52623993  0.67733300  0.66009674    -0.56900
H2665       H  0.56769506  0.74573922  0.64624602     0.18700
O2666       O  0.67764984  0.76712357  0.67701863    -0.63600
H2667       H  0.63582195  0.69891103  0.69171579     0.17100
C2668       C  0.57428875  0.62065129  0.68016475     0.29400
C2669       C  0.55664694  0.58476975  0.68950854    -0.24500
C2670       C  0.52793480  0.57455846  0.70492778    -0.23800
C2671       C  0.51495611  0.59968984  0.70963268     0.40800
C2672       C  0.53242045  0.63539358  0.70021542    -0.26200
O2673       O  0.60338322  0.63045103  0.66588668    -0.58100
H2674       H  0.56690412  0.56572750  0.68575120     0.16400
O2675       O  0.48671703  0.59037057  0.72449131    -0.59600
H2676       H  0.52304547  0.65487250  0.70468728     0.14900
H2677       H  0.68018178  0.78252028  0.69010648     0.46800
H2678       H  0.59184757  0.62468457  0.65107531     0.42100
H2679       H  0.46376377  0.58150840  0.71552952     0.45600
H2680       H  0.52565078  0.66442453  0.64622806     0.37100
C2681       C  0.80023681  0.87188035  0.66604409    -0.27200
C2682       C  0.81050477  0.90307657  0.67958280     0.02400
C2683       C  0.78414854  0.91483265  0.68355326     0.30500
C2684       C  0.74889523  0.89643722  0.67332579    -0.19000
C2685       C  0.73936337  0.86621480  0.65907913    -0.28400
C2686       C  0.76506417  0.85345654  0.65588468     0.44500
C2687       C  0.84871348  0.92277561  0.68941810     0.05700
O2688       O  0.79259385  0.94429600  0.69734604    -0.56900
H2689       H  0.72935413  0.90644651  0.67603378     0.18700
O2690       O  0.75555800  0.82238566  0.64324924    -0.63600
H2691       H  0.81984988  0.86206652  0.66302418     0.17100
C2692       C  0.86216954  0.90301148  0.70183600     0.29400
C2693       C  0.89855334  0.92147594  0.71031100    -0.24500
C2694       C  0.92189368  0.96005993  0.70730779    -0.23800
C2695       C  0.90892153  0.97978172  0.69450358     0.40800
C2696       C  0.87253568  0.96120637  0.68574124    -0.26200
O2697       O  0.83964713  0.86571437  0.70619814    -0.58100
H2698       H  0.90831548  0.90568900  0.71974051     0.16400
O2699       O  0.93108130  0.51730957  0.69117705    -0.59600
H2700       H  0.86291375  0.97682156  0.67600156     0.14900
H2701       H  0.77367392  0.83098811  0.63094725     0.46800
H2702       H  0.82660963  0.86482610  0.72005774     0.42100
H2703       H  0.94487224  0.51963600  0.67740763     0.45600
H2704       H  0.78663152  0.93331097  0.71229784     0.37100
C2705       C  0.53920728  0.92104772  0.67973220    -0.27200
C2706       C  0.57702592  0.93374188  0.68470139     0.02400
C2707       C  0.59640105  0.96574755  0.69801235     0.30500
C2708       C  0.57784738  0.98361860  0.70661427    -0.19000
C2709       C  0.53953667  0.96947383  0.70282236    -0.28400
C2710       C  0.52042516  0.93857163  0.68877030     0.44500
C2711       C  0.59611970  0.91363034  0.67602323     0.05700
O2712       O  0.63304332  0.97874879  0.70362468    -0.56900
H2713       H  0.59285337  0.00723132  0.71754527     0.18700
O2714       O  0.48300206  0.92405149  0.68475550    -0.63600
H2715       H  0.52397407  0.89700027  0.66916403     0.17100
C2716       C  0.58088853  0.87473615  0.67891899     0.29400
C2717       C  0.59916933  0.85650349  0.67016869    -0.24500
C2718       C  0.63216025  0.87637254  0.65804183    -0.23800
C2719       C  0.64809741  0.91529660  0.65577966     0.40800
C2720       C  0.63017192  0.93362233  0.66476890    -0.26200
O2721       O  0.54852144  0.85445244  0.69059080    -0.58100
H2722       H  0.58668394  0.82650691  0.67202858     0.16400
O2723       O  0.68149580  0.93561143  0.64504440    -0.59600
H2724       H  0.64254718  0.96351068  0.66247687     0.14900
H2725       H  0.47014316  0.90650502  0.69703086     0.46800
H2726       H  0.52905771  0.83991923  0.67947217     0.42100
H2727       H  0.67571404  0.94558078  0.63167949     0.45600
H2728       H  0.63218437  0.96548949  0.71740950     0.37100
loop_ 
_geom_bond_atom_site_label_1 
_geom_bond_atom_site_label_2 
_geom_bond_distance 
_geom_bond_site_symmetry_2 
_ccdc_geom_bond_type 
C1            H2   1.111       .  S
C1            C7   1.549       .  S
C1            C6   1.554       .  S
C1            C5   1.550       .  S
C3            H4   1.112       .  S
C3            C9   1.522       .  S
C3            C8   1.520       .  S
C3           C10   1.519       .  S
C5            C8   1.374       .  D
C5          C672   1.485       .  S
C6            C9   1.377       .  D
C6          C639   1.491       .  S
C7           C10   1.369       .  D
C7          C615   1.487       .  S
C8          C600   1.476       .  S
C9          C567   1.480       .  S
C10         C543   1.472       .  S
C11          H12   1.110       .  S
C11          C17   1.542       .  S
C11          C16   1.553       .  S
C11          C15   1.553       .  S
C13          H14   1.112       .  S
C13          C19   1.519       .  S
C13          C18   1.522       .  S
C13          C20   1.526       .  S
C15          C18   1.379       .  D
C15         C480   1.498       .  S
C16          C19   1.372       .  D
C16         C504   1.480       .  S
C17          C20   1.370       .  D
C17         C519   1.487       .  S
C18         C423   1.478       .  S
C19         C447   1.483       .  S
C20         C399   1.470       .  S
C21          H22   1.111       .  S
C21          C26   1.538   1_655  S
C21        C2073   1.539   1_545  S
C21         C707   1.542   1_645  S
C23        H1388   1.109       .  S
C23          C29   1.549       .  S
C23         C710   1.538   1_545  S
C23        C2076   1.541   1_445  S
H24        C1387   1.109       .  S
C25         C703   1.542   1_455  S
C25          C28   1.378       .  D
C25         C663   1.490       .  S
C26          C29   1.383       .  D
C26         C624   1.490       .  S
C27        C2067   1.540       .  S
C27          C30   1.374       .  D
C27         C648   1.494       .  S
C28         C705   1.538       .  S
C28         C495   1.497       .  S
C29         C528   1.506       .  S
C30        C2069   1.541       .  S
C30         C471   1.484       .  S
C31          H32   1.111       .  S
C31          C37   1.547       .  S
C31          C36   1.538       .  S
C31          C35   1.546       .  S
C33          H34   1.111       .  S
C33          C39   1.526       .  S
C33          C38   1.527       .  S
C33          C40   1.524       .  S
C35          C38   1.377       .  D
C35         C375   1.482       .  S
C36          C39   1.370       .  D
C36         C351   1.475       .  S
C37          C40   1.372       .  D
C37         C336   1.487       .  S
C38         C255   1.486       .  S
C39         C303   1.476       .  S
C40         C288   1.477       .  S
C41          H42   1.112       .  S
C41          C47   1.515       .  S
C41          C46   1.521       .  S
C41          C45   1.517       .  S
C43          H44   1.111       .  S
C43          C49   1.551       .  S
C43          C48   1.544       .  S
C43          C50   1.550       .  S
C45          C48   1.369       .  D
C45         C120   1.468       .  S
C46          C49   1.379       .  D
C46         C159   1.473       .  S
C47          C50   1.371       .  D
C47         C135   1.481       .  S
C48         C231   1.484       .  S
C49         C216   1.495       .  S
C50         C183   1.473       .  S
C51          H52   1.111       .  S
C51          C57   1.533       .  S
C51        C2102   1.543   1_445  S
C51        C1419   1.535   1_455  S
C53          H54   1.111       .  S
C53          C60   1.545   1_565  S
C53        C2105   1.533   1_455  S
C53        C1422   1.543   1_465  S
C55        C1415   1.535       .  S
C55          C58   1.376       .  D
C55         C207   1.486       .  S
C56        C2097   1.543       .  S
C56          C59   1.377       .  D
C56         C192   1.487       .  S
C57          C60   1.376       .  D
C57         C240   1.488       .  S
C58        C1417   1.543   1_545  S
C58         C360   1.488       .  S
C59        C2099   1.533       .  S
C59         C327   1.488       .  S
C60         C384   1.492       .  S
Zn61         O65   1.958       .  S
Zn61         O70   2.021       .  S
Zn61         O77   2.005       .  S
Zn61        O748   2.012       .  S
Zn62       O2111   1.961       .  S
Zn62         O67   2.052       .  S
Zn62         O73   2.023       .  S
Zn62       O1433   2.025       .  S
Zn63         O65   1.917   1_654  S
Zn63         O68   1.961   1_655  S
Zn63       O2117   1.955   1_545  S
Zn63       O1438   1.967       .  S
Zn64       O1429   1.950       .  S
Zn64         O72   2.019       .  S
Zn64        O757   1.988   1_545  S
Zn64       O1440   1.986       .  S
O65       Zn2108   1.962   1_445  S
O65       Zn1428   1.950   1_455  S
O66        Zn743   2.011       .  S
O66          C78   1.274       .  A
O67          C79   1.277   1_556  A
O68          C80   1.267       .  A
O69       Zn1426   2.024   1_455  S
O69          C78   1.276       .  A
O70          C80   1.273   1_556  A
O71       Zn2109   1.956       .  S
O71          C79   1.267       .  A
O72          C81   1.272   1_556  A
O73          C82   1.276       .  A
O74       Zn1427   1.966       .  S
O74          C81   1.266       .  A
O75        Zn746   1.987       .  S
O75          C82   1.271       .  A
O76       Zn1428   1.985   1_455  S
O76          C83   1.271       .  A
O77          C83   1.272       .  A
C78         C456   1.482       .  S
C79         C144   1.483       .  S
C80         C111   1.478       .  S
C81         C168   1.474       .  S
C82         C432   1.479       .  S
C83         C408   1.473       .  S
Zn84       O2134   1.966       .  S
Zn84         O89   2.027       .  S
Zn84        O100   2.046       .  S
Zn84        O775   2.027       .  S
Zn85        O770   1.959   1_455  S
Zn85         O96   2.037       .  S
Zn85        O772   2.010       .  S
Zn85       O1456   2.002   1_455  S
Zn86         O88   1.960   1_445  S
Zn86         O94   2.016       .  S
Zn86         O97   2.037       .  S
Zn86       O1455   2.004   1_455  S
Zn87         O88   1.924       .  S
Zn87         O95   1.971   1_665  S
Zn87        O780   1.976   1_655  S
Zn87       O2145   1.982       .  S
O88       Zn2130   1.966       .  S
O88        Zn767   1.958   1_655  S
O89         C101   1.276       .  A
O90        Zn767   2.010   1_545  S
O90         C102   1.273       .  A
O91       Zn1450   2.003       .  S
O91         C103   1.273       .  A
O92       Zn1449   1.999       .  S
O92         C101   1.273       .  A
O93        Zn766   2.026   1_545  S
O93         C103   1.276       .  A
O94         C102   1.273       .  A
O95         C104   1.267       .  A
O96         C105   1.274       .  A
O97         C104   1.276       .  A
O98        Zn769   1.971   1_455  S
O98         C105   1.268       .  A
O99       Zn2133   1.983       .  S
O99         C106   1.270       .  A
O100        C106   1.276       .  A
C101        C279   1.485       .  S
C102        C264   1.487       .  S
C103        C312   1.478       .  S
C104        C552   1.483       .  S
C105        C591   1.477       .  S
C106        C576   1.488       .  S
C107        C108   1.402       .  A
C107        C112   1.397       .  A
C107        H117   1.084       .  S
C108        C113   1.466       .  S
C108        C109   1.401       .  A
C109        C110   1.393       .  A
C109        O114   1.373       .  S
C110        C111   1.409       .  A
C110        H115   1.083       .  S
C111        C112   1.411       .  A
C112        O116   1.371       .  S
C113        C118   1.407       .  A
C113        C122   1.400       .  A
O114        H130   0.992       .  S
O116        H809   0.992       .  S
C118        C119   1.396       .  A
C118        O123   1.373       .  S
C119        C120   1.400       .  A
C119        H124   1.083       .  S
C120        C121   1.405       .  A
C121        C122   1.392       .  A
C121        O125   1.372       .  S
C122        H126   1.084       .  S
O123        H128   0.992       .  S
O125        H129   0.992       .  S
H127        O798   0.992       .  S
C131        C132   1.398       .  A
C131        C136   1.395       .  A
C131        H141   1.084       .  S
C132        C137   1.474       .  S
C132        C133   1.408       .  A
C133        C134   1.401       .  A
C133        O138   1.372       .  S
C134        C135   1.403       .  A
C134        H139   1.083       .  S
C135        C136   1.408       .  A
C136        O140   1.371       .  S
C137        C142   1.402       .  A
C137        C146   1.405       .  A
O138        H154   0.992       .  S
O140        H151   0.991       .  S
C142        C143   1.393       .  A
C142        O147   1.372       .  S
C143        C144   1.410       .  A
C143        H148   1.083       .  S
C144        C145   1.410       .  A
C145        C146   1.402       .  A
C145        O149   1.371       .  S
C146        H150   1.084       .  S
O147       H1516   0.992       .  S
O149        H153   0.992       .  S
H152       O1511   0.992       .  S
C155        C156   1.402       .  A
C155        C160   1.396       .  A
C155        H165   1.084       .  S
C156        C161   1.464       .  S
C156        C157   1.402       .  A
C157        C158   1.393       .  A
C157        O162   1.372       .  S
C158        C159   1.403       .  A
C158        H163   1.084       .  S
C159        C160   1.407       .  A
C160        O164   1.372       .  S
C161        C166   1.405       .  A
C161        C170   1.396       .  A
O162        H178   0.991       .  S
O164        H175   0.990       .  S
C166        C167   1.398       .  A
C166        O171   1.372       .  S
C167        C168   1.405       .  A
C167        H172   1.083       .  S
C168        C169   1.414       .  A
C169        C170   1.393       .  A
C169        O173   1.372       .  S
C170        H174   1.084       .  S
O171       H1540   0.992       .  S
O173        H859   0.992       .  S
H176       O1535   0.992       .  S
H177        O855   0.992       .  S
C179        C180   1.404       .  A
C179        C184   1.398       .  A
C179        H189   1.083       .  S
C180        C185   1.483       .  S
C180        C181   1.411       .  A
C181        C182   1.400       .  A
C181        O186   1.371       .  S
C182        C183   1.399       .  A
C182        H187   1.084       .  S
C183        C184   1.406       .  A
C184        O188   1.372       .  S
C185        C190   1.407       .  A
C185        C194   1.406       .  A
O186        H202   0.991       .  S
O188        H199   0.992       .  S
C190        C191   1.397       .  A
C190        O195   1.372       .  S
C191        C192   1.405       .  A
C191       H1560   1.083       .  S
C192        C193   1.406       .  A
C193        C194   1.402       .  A
C193        O197   1.369       .  S
C194        H198   1.084       .  S
O195       H1564   0.992       .  S
H196       C1555   1.083   1_455  S
O197        H201   0.991       .  S
H200       O1559   0.992   1_455  S
C203        C204   1.411       .  A
C203        C208   1.404       .  A
C203        H213   1.082       .  S
C204        C209   1.503       .  S
C204        C205   1.417       .  A
C205        C206   1.399       .  A
C205        O210   1.371       .  S
C206        C207   1.397       .  A
C206        H211   1.081   1_545  S
C207        C208   1.405       .  A
C208       O1576   1.371       .  S
C209        C214   1.417       .  A
C209        C218   1.407       .  A
O210        H226   0.992       .  S
O212       C1572   1.371   1_455  S
O212        H223   0.991       .  S
C214        C215   1.408       .  A
C214        O219   1.373       .  S
C215        C216   1.403       .  A
C215        H220   1.083       .  S
C216        C217   1.410       .  A
C217        C218   1.397       .  A
C217        O221   1.371       .  S
C218        H222   1.082       .  S
O219        H224   0.992       .  S
O221        H225   0.991       .  S
C227        C228   1.407       .  A
C227        C232   1.404       .  A
C227        H237   1.083       .  S
C228        C233   1.486       .  S
C228        C229   1.409       .  A
C229        C230   1.398       .  A
C229        O234   1.372       .  S
C230        C231   1.403       .  A
C230        H235   1.084       .  S
C231        C232   1.406       .  A
C232        O236   1.371       .  S
C233        C238   1.411       .  A
C233        C242   1.402       .  A
O234        H250   0.992       .  S
O236        H247   0.992       .  S
C238        C239   1.405       .  A
C238        O243   1.372       .  S
C239        C240   1.402       .  A
C239        H926   1.084   1_545  S
C240        C241   1.409       .  A
C241        C242   1.400       .  A
C241        O245   1.373       .  S
C242        H246   1.084       .  S
O243        H248   0.992       .  S
H244        C921   1.084       .  S
O245        H249   0.992       .  S
C251        C252   1.402       .  A
C251        C256   1.399       .  A
C251        H261   1.083       .  S
C252        C257   1.481       .  S
C252        C253   1.408       .  A
C253        C254   1.399       .  A
C253        O258   1.371       .  S
C254        C255   1.404       .  A
C254        H259   1.083       .  S
C255        C256   1.409       .  A
C256        O260   1.371       .  S
C257        C262   1.406       .  A
C257        C266   1.402       .  A
O258        H274   0.992       .  S
O260        H271   0.992       .  S
C262        C263   1.399       .  A
C262        O267   1.372       .  S
C263        C264   1.408       .  A
C263        H268   1.083       .  S
C264        C265   1.414       .  A
C265        C266   1.400       .  A
C265        O269   1.371       .  S
C266        H270   1.084       .  S
O267        H954   0.992       .  S
O269        H273   0.992       .  S
H272        O949   0.992       .  S
C275        C276   1.401       .  A
C275        C280   1.397       .  A
C275        H285   1.084       .  S
C276        C281   1.481       .  S
C276        C277   1.409       .  A
C277        C278   1.399       .  A
C277        O282   1.372       .  S
C278        C279   1.407       .  A
C278        H283   1.083       .  S
C279        C280   1.414       .  A
C280        O284   1.372       .  S
C281        C286   1.412       .  A
C281        C290   1.402       .  A
O282        H298   0.992       .  S
O284       H1659   0.992       .  S
C286        C287   1.399       .  A
C286        O291   1.371       .  S
C287        C288   1.401       .  A
C287        H292   1.083       .  S
C288        C289   1.407       .  A
C289        C290   1.394       .  A
C289        O293   1.371       .  S
C290        H294   1.083       .  S
O291        H296   0.992       .  S
O293        H297   0.992       .  S
H295       O1648   0.992       .  S
C299        C300   1.402       .  A
C299        C304   1.398       .  A
C299        H309   1.083       .  S
C300        C305   1.481       .  S
C300        C301   1.409       .  A
C301        C302   1.399       .  A
C301        O306   1.371       .  S
C302        C303   1.401       .  A
C302        H307   1.084       .  S
C303        C304   1.406       .  A
C304        O308   1.372       .  S
C305        C310   1.410       .  A
C305        C314   1.401       .  A
O306        H322   0.992       .  S
O308        H319   0.990       .  S
C310        C311   1.400       .  A
C310        O315   1.373       .  S
C311        C312   1.403       .  A
C311        H316   1.084       .  S
C312        C313   1.413       .  A
C313        C314   1.399       .  A
C313        O317   1.372       .  S
C314        H318   1.084       .  S
O315        H320   0.992       .  S
O317       H1685   0.992       .  S
H321       O1681   0.992       .  S
C323        C324   1.408       .  A
C323        C328   1.405       .  A
C323        H333   1.083       .  S
C324        C329   1.491       .  S
C324        C325   1.410       .  A
C325        C326   1.399       .  A
C325        O330   1.371       .  S
C326        C327   1.403       .  A
C326        H331   1.084       .  S
C327        C328   1.406       .  A
C328       O1696   1.371       .  S
C329        C334   1.412       .  A
C329        C338   1.405       .  A
O330        H346   0.991       .  S
O332       C1692   1.371   1_455  S
O332        H343   0.991       .  S
C334        C335   1.404       .  A
C334        O339   1.371       .  S
C335        C336   1.402       .  A
C335        H340   1.084       .  S
C336        C337   1.409       .  A
C337        C338   1.401       .  A
C337        O341   1.371       .  S
C338        H342   1.083       .  S
O339        H344   0.992       .  S
O341        H345   0.991       .  S
C347        C348   1.408       .  A
C347        C352   1.396       .  A
C347        H357   1.082       .  S
C348        C353   1.497       .  S
C348        C349   1.418       .  A
C349        C350   1.404       .  A
C349        O354   1.374       .  S
C350        C351   1.396       .  A
C350        H355   1.084       .  S
C351        C352   1.402       .  A
C352        O356   1.369       .  S
C353        C358   1.413       .  A
C353        C362   1.409       .  A
O354        H370   0.992       .  S
O356        H367   0.991       .  S
C358        C359   1.402       .  A
C358        O363   1.375       .  S
C359        C360   1.396       .  A
C359        H364   1.073       .  S
C360        C361   1.406       .  A
C361        C362   1.405       .  A
C361        O365   1.378   1_545  S
C362        H366   1.082       .  S
O363        H368   0.992       .  S
O365        H369   0.992       .  S
C371        C372   1.398       .  A
C371        C376   1.399       .  A
C371        H381   1.084       .  S
C372        C377   1.473       .  S
C372        C373   1.407       .  A
C373        C374   1.401       .  A
C373        O378   1.372       .  S
C374        C375   1.402       .  A
C374        H379   1.084       .  S
C375        C376   1.412       .  A
C376        O380   1.374       .  S
C377        C382   1.403       .  A
C377        C386   1.400       .  A
O378        H394   0.992       .  S
O380        H391   0.992       .  S
C382        C383   1.398       .  A
C382        O387   1.372       .  S
C383        C384   1.408       .  A
C383        H388   1.083   1_545  S
C384        C385   1.406       .  A
C385        C386   1.401       .  A
C385        O389   1.366       .  S
C386        H390   1.084       .  S
O387        H392   0.992       .  S
O389        H393   0.992       .  S
C395        C396   1.403       .  A
C395        C400   1.394       .  A
C395        H405   1.084       .  S
C396        C401   1.475       .  S
C396        C397   1.408       .  A
C397        C398   1.396       .  A
C397        O402   1.373       .  S
C398        C399   1.399       .  A
C398        H403   1.083       .  S
C399        C400   1.405       .  A
C400        O404   1.370       .  S
C401        C406   1.406       .  A
C401        C410   1.404       .  A
O402        H418   0.992       .  S
O404        H415   0.991       .  S
C406        C407   1.393       .  A
C406        O411   1.372       .  S
C407        C408   1.405       .  A
C407        H412   1.084       .  S
C408        C409   1.410       .  A
C409        C410   1.397       .  A
C409        O413   1.372       .  S
C410        H414   1.084       .  S
O411        H416   0.992       .  S
O413        H417   0.992       .  S
C419        C420   1.403       .  A
C419        C424   1.398       .  A
C419        H429   1.084       .  S
C420        C425   1.473       .  S
C420        C421   1.406       .  A
C421        C422   1.396       .  A
C421        O426   1.373       .  S
C422        C423   1.401       .  A
C422        H427   1.084       .  S
C423        C424   1.408       .  A
C424        O428   1.372       .  S
C425        C430   1.406       .  A
C425        C434   1.399       .  A
O426        H442   0.992       .  S
O428        H439   0.991       .  S
C430        C431   1.397       .  A
C430        O435   1.372       .  S
C431        C432   1.405       .  A
C431        H436   1.083       .  S
C432        C433   1.414       .  A
C433        C434   1.397       .  A
C433        O437   1.372       .  S
C434        H438   1.084       .  S
O435        H440   0.992       .  S
O437        H441   0.992       .  S
C443        C444   1.404       .  A
C443        C448   1.399       .  A
C443        H453   1.084       .  S
C444        C449   1.483       .  S
C444        C445   1.408       .  A
C445        C446   1.401       .  A
C445        O450   1.372       .  S
C446        C447   1.403       .  A
C446        H451   1.083       .  S
C447        C448   1.406       .  A
C448        O452   1.369       .  S
C449        C454   1.408       .  A
C449        C458   1.404       .  A
O450        H466   0.992       .  S
O452        H463   0.991       .  S
C454        C455   1.401       .  A
C454        O459   1.372       .  S
C455        C456   1.407       .  A
C455        H460   1.084       .  S
C456        C457   1.410       .  A
C457        C458   1.399       .  A
C457        O461   1.371       .  S
C458        H462   1.084       .  S
O459        H464   0.992       .  S
O461        H465   0.992       .  S
C467        C468   1.408       .  A
C467        C472   1.402       .  A
C467        H477   1.083       .  S
C468        C473   1.500       .  S
C468        C469   1.416       .  A
C469        C470   1.406       .  A
C469        O474   1.373       .  S
C470        C471   1.401       .  A
C470        H475   1.084       .  S
C471        C472   1.404       .  A
C472       O1158   1.373       .  S
C473        C478   1.412       .  A
C473        C482   1.411       .  A
O474        H490   0.992       .  S
O476       C1154   1.373   1_545  S
O476        H487   0.991       .  S
C478        C479   1.400       .  A
C478        O483   1.371       .  S
C479        C480   1.407       .  A
C479        H484   1.083       .  S
C480        C481   1.407       .  A
C481        C482   1.405       .  A
C481        O485   1.371       .  S
C482        H486   1.083       .  S
O483        H488   0.992       .  S
O485        H489   0.992       .  S
C491        C492   1.413       .  A
C491        C496   1.406       .  A
C491        H501   1.082       .  S
C492        C497   1.506       .  S
C492        C493   1.415       .  A
C493        C494   1.397       .  A
C493        O498   1.371       .  S
C494        C495   1.404       .  A
C494        H499   1.082       .  S
C495        C496   1.406       .  A
C496        O500   1.371       .  S
C497        C502   1.417       .  A
C497        C506   1.412       .  A
O498        H514   0.992       .  S
O500       H1193   0.992       .  S
C502        C503   1.402       .  A
C502        O507   1.371       .  S
C503        C504   1.400       .  A
C503        H508   1.084       .  S
C504        C505   1.402       .  A
C505        C506   1.404       .  A
C505        O509   1.375       .  S
C506        H510   1.081       .  S
O507        H512   0.992       .  S
O509        H513   0.991       .  S
H511       O1182   0.992       .  S
C515        C516   1.411       .  A
C515        C520   1.405       .  A
C515        H525   1.082       .  S
C516        C521   1.505       .  S
C516        C517   1.416       .  A
C517        C518   1.404       .  A
C517        O522   1.371       .  S
C518        C519   1.401       .  A
C518        H523   1.083       .  S
C519        C520   1.404       .  A
C520        O524   1.374       .  S
C521        C526   1.412       .  A
C521        C530   1.412       .  A
O522        H538   0.992       .  S
O524        H535   0.992       .  S
C526        C527   1.401       .  A
C526        O531   1.373       .  S
C527        C528   1.407       .  A
C527        H532   1.081       .  S
C528        C529   1.408       .  A
C529        C530   1.409       .  A
C529       O1897   1.371   1_455  S
C530        H534   1.083       .  S
O531        H536   0.992       .  S
O533       C1893   1.371       .  S
O533        H537   0.991       .  S
C539        C540   1.404       .  A
C539        C544   1.398       .  A
C539        H549   1.084       .  S
C540        C545   1.478       .  S
C540        C541   1.408       .  A
C541        C542   1.399       .  A
C541        O546   1.373       .  S
C542        C543   1.400       .  A
C542        H547   1.084       .  S
C543        C544   1.404       .  A
C544        O548   1.372       .  S
C545        C550   1.409       .  A
C545        C554   1.399       .  A
O546        H562   0.992       .  S
O548        H559   0.992       .  S
C550        C551   1.399       .  A
C550        O555   1.371       .  S
C551        C552   1.405       .  A
C551        H556   1.083       .  S
C552        C553   1.416       .  A
C553        C554   1.396       .  A
C553        O557   1.372       .  S
C554        H558   1.084       .  S
O555        H560   0.992       .  S
O557        H561   0.992       .  S
C563        C564   1.400       .  A
C563        C568   1.397       .  A
C563        H573   1.084       .  S
C564        C569   1.476       .  S
C564        C565   1.408       .  A
C565        C566   1.401       .  A
C565        O570   1.372       .  S
C566        C567   1.402       .  A
C566        H571   1.084       .  S
C567        C568   1.408       .  A
C568        O572   1.372       .  S
C569        C574   1.402       .  A
C569        C578   1.403       .  A
O570        H586   0.992       .  S
O572        H583   0.992       .  S
C574        C575   1.395       .  A
C574        O579   1.372       .  S
C575        C576   1.410       .  A
C575        H580   1.083       .  S
C576        C577   1.413       .  A
C577        C578   1.403       .  A
C577       O1263   1.371       .  S
C578        H582   1.084       .  S
O579        H584   0.992       .  S
O581       C1259   1.371       .  S
O581        H585   0.992       .  S
C587        C588   1.396       .  A
C587        C592   1.393       .  A
C587        H597   1.084       .  S
C588        C593   1.469       .  S
C588        C589   1.407       .  A
C589        C590   1.403       .  A
C589        O594   1.371       .  S
C590        C591   1.405       .  A
C590        H595   1.083       .  S
C591        C592   1.414       .  A
C592        O596   1.372       .  S
C593        C598   1.402       .  A
C593        C602   1.402       .  A
O594        H610   0.992       .  S
O596        H607   0.992       .  S
C598        C599   1.397       .  A
C598        O603   1.372       .  S
C599        C600   1.404       .  A
C599        H604   1.084       .  S
C600        C601   1.406       .  A
C601        C602   1.401       .  A
C601        O605   1.372       .  S
C602        H606   1.084       .  S
O603        H608   0.991       .  S
O605        H609   0.992       .  S
C611        C612   1.407       .  A
C611        C616   1.405       .  A
C611        H621   1.083       .  S
C612        C617   1.487       .  S
C612        C613   1.408       .  A
C613        C614   1.400       .  A
C613        O618   1.372       .  S
C614        C615   1.405       .  A
C614        H619   1.084       .  S
C615        C616   1.406       .  A
C616        O620   1.371       .  S
C617        C622   1.411       .  A
C617        C626   1.403       .  A
O618        H634   0.992       .  S
O620        H631   0.991       .  S
C622        C623   1.405       .  A
C622        O627   1.371       .  S
C623        C624   1.403       .  A
C623        H628   1.084       .  S
C624        C625   1.410       .  A
C625        C626   1.401       .  A
C625        O629   1.372   1_455  S
C626        H630   1.083       .  S
O627        H632   0.991       .  S
O629        H633   0.991       .  S
C635        C636   1.404       .  A
C635        C640   1.403       .  A
C635        H645   1.083       .  S
C636        C641   1.493       .  S
C636        C637   1.412       .  A
C637        C638   1.407       .  A
C637        O642   1.371       .  S
C638        C639   1.404       .  A
C638        H643   1.084       .  S
C639        C640   1.409       .  A
C640        O644   1.373       .  S
C641        C646   1.409       .  A
C641        C650   1.408       .  A
O642        H658   0.992       .  S
O644        H655   0.992       .  S
C646        C647   1.401       .  A
C646        O651   1.371       .  S
C647        C648   1.404       .  A
C647        H652   1.082       .  S
C648        C649   1.408       .  A
C649        C650   1.407       .  A
C649       O1335   1.371       .  S
C650        H654   1.083       .  S
O651        H656   0.992       .  S
O653       C1331   1.371   1_545  S
O653        H657   0.991       .  S
C659        C660   1.409       .  A
C659        C664   1.406       .  A
C659        H669   1.083       .  S
C660        C665   1.493       .  S
C660        C661   1.410       .  A
C661        C662   1.399       .  A
C661        O666   1.372       .  S
C662        C663   1.405       .  A
C662        H667   1.084       .  S
C663        C664   1.407       .  A
C664        O668   1.372   1_455  S
C665        C670   1.413       .  A
C665        C674   1.406       .  A
O666        H682   0.992       .  S
O668        H679   0.992       .  S
C670        C671   1.406       .  A
C670        O675   1.372       .  S
C671        C672   1.402       .  A
C671        H676   1.084       .  S
C672        C673   1.406       .  A
C673        C674   1.403       .  A
C673        O677   1.373       .  S
C674        H678   1.083       .  S
O675        H680   0.992       .  S
O677        H681   0.992       .  S
C683        H684   1.111       .  S
C683        C689   1.549       .  S
C683        C688   1.554       .  S
C683        C687   1.550       .  S
C685        H686   1.112       .  S
C685        C691   1.522       .  S
C685        C690   1.520       .  S
C685        C692   1.519       .  S
C687        C690   1.373       .  D
C687       C1354   1.485       .  S
C688        C691   1.377       .  D
C688       C1321   1.492       .  S
C689        C692   1.369       .  D
C689       C1297   1.487       .  S
C690       C1282   1.476       .  S
C691       C1249   1.480       .  S
C692       C1225   1.473       .  S
C693        H694   1.110       .  S
C693        C699   1.542       .  S
C693        C698   1.553       .  S
C693        C697   1.553       .  S
C695        H696   1.112       .  S
C695        C701   1.519       .  S
C695        C700   1.522       .  S
C695        C702   1.526       .  S
C697        C700   1.379       .  D
C697       C1162   1.498       .  S
C698        C701   1.373       .  D
C698       C1186   1.480       .  S
C699        C702   1.371       .  D
C699       C1201   1.487       .  S
C700       C1105   1.478       .  S
C701       C1129   1.484       .  S
C702       C1081   1.471       .  S
C703        H704   1.111       .  S
C703       C1391   1.539       .  S
C703        C708   1.538   1_655  S
C705       H2070   1.109       .  S
C705        C711   1.549       .  S
C705       C1394   1.541   1_455  S
H706       C2069   1.109       .  S
C707        C710   1.378       .  D
C707       C1345   1.490       .  S
C708        C711   1.383       .  D
C708       C1306   1.490       .  S
C709       C1385   1.540   1_565  S
C709        C712   1.374       .  D
C709       C1330   1.494       .  S
C710       C1177   1.497       .  S
C711       C1210   1.507       .  S
C712       C1387   1.541   1_565  S
C712       C1153   1.484       .  S
C713        H714   1.111       .  S
C713        C719   1.547       .  S
C713        C718   1.538       .  S
C713        C717   1.546       .  S
C715        H716   1.111       .  S
C715        C721   1.527       .  S
C715        C720   1.527       .  S
C715        C722   1.524       .  S
C717        C720   1.377       .  D
C717       C1057   1.483       .  S
C718        C721   1.370       .  D
C718       C1033   1.475       .  S
C719        C722   1.372       .  D
C719       C1018   1.487       .  S
C720        C937   1.487       .  S
C721        C985   1.477       .  S
C722        C970   1.477       .  S
C723        H724   1.112       .  S
C723        C729   1.515       .  S
C723        C728   1.521       .  S
C723        C727   1.517       .  S
C725        H726   1.111       .  S
C725        C731   1.551       .  S
C725        C730   1.544       .  S
C725        C732   1.550       .  S
C727        C730   1.369       .  D
C727        C802   1.467       .  S
C728        C731   1.379       .  D
C728        C841   1.473       .  S
C729        C732   1.371       .  D
C729        C817   1.482       .  S
C730        C913   1.484       .  S
C731        C898   1.495       .  S
C732        C865   1.473       .  S
C733        H734   1.111       .  S
C733        C739   1.533       .  S
C733       C1420   1.543   1_455  S
C733       C2101   1.535   1_455  S
C735        H736   1.111   1_455  S
C735       C1423   1.533   1_455  S
C735       C2104   1.543   1_455  S
C735        C742   1.545       .  S
C737       C2097   1.535       .  S
C737        C740   1.376       .  D
C737        C889   1.487       .  S
C738       C1415   1.543   1_565  S
C738        C741   1.377       .  D
C738        C874   1.487       .  S
C739        C742   1.376       .  D
C739        C922   1.488       .  S
C740       C2099   1.543       .  S
C740       C1042   1.488       .  S
C741       C1417   1.533       .  S
C741       C1009   1.488       .  S
C742       C1066   1.492       .  S
Zn743       O747   1.958       .  S
Zn743       O752   2.021       .  S
Zn743       O759   2.006       .  S
Zn744      O1429   1.961   1_565  S
Zn744       O749   2.052       .  S
Zn744      O2115   2.024       .  S
Zn744       O755   2.023       .  S
Zn745       O747   1.917   1_654  S
Zn745       O750   1.961   1_655  S
Zn745      O1435   1.956       .  S
Zn745      O2120   1.967       .  S
Zn746      O2111   1.950       .  S
Zn746       O754   2.019       .  S
Zn746      O2122   1.985       .  S
O747      Zn1426   1.962   1_455  S
O747      Zn2110   1.950   1_455  S
O748        C760   1.274   1_545  A
O749        C761   1.277   1_556  A
O750        C762   1.267       .  A
O751      Zn2108   2.025   1_455  S
O751        C760   1.276       .  A
O752        C762   1.273   1_556  A
O753      Zn1427   1.956   1_565  S
O753        C761   1.267       .  A
O754        C763   1.272   1_556  A
O755        C764   1.276       .  A
O756      Zn2109   1.966       .  S
O756        C763   1.266       .  A
O757        C764   1.271       .  A
O758      Zn2110   1.985   1_455  S
O758        C765   1.271       .  A
O759        C765   1.272       .  A
C760       C1138   1.483       .  S
C761        C826   1.483       .  S
C762        C793   1.478       .  S
C763        C850   1.474       .  S
C764       C1114   1.479       .  S
C765       C1090   1.474       .  S
Zn766      O1452   1.966       .  S
Zn766       O771   2.028       .  S
Zn766       O782   2.047       .  S
Zn767      O2138   2.000   1_455  S
Zn767       O778   2.035       .  S
Zn768       O770   1.960   1_455  S
Zn768      O2137   2.002   1_455  S
Zn768       O776   2.017       .  S
Zn768       O779   2.037       .  S
Zn769       O770   1.922       .  S
Zn769       O777   1.972   1_655  S
Zn769      O1463   1.979       .  S
O770      Zn1448   1.966       .  S
O771        C783   1.276       .  A
O772        C784   1.273       .  A
O773      Zn2132   2.005       .  S
O773        C785   1.273       .  A
O774      Zn2131   2.000       .  S
O774        C783   1.273       .  A
O775        C785   1.276       .  A
O776        C784   1.273       .  A
O777        C786   1.267       .  A
O778        C787   1.274       .  A
O779        C786   1.276       .  A
O780        C787   1.268       .  A
O781      Zn1451   1.982       .  S
O781        C788   1.270       .  A
O782        C788   1.276       .  A
C783        C961   1.485       .  S
C784        C946   1.487       .  S
C785        C994   1.478       .  S
C786       C1234   1.483       .  S
C787       C1273   1.474       .  S
C788       C1258   1.488       .  S
C789        C790   1.402       .  A
C789        C794   1.397       .  A
C789        H799   1.084       .  S
C790        C795   1.467       .  S
C790        C791   1.401       .  A
C791        C792   1.393       .  A
C791        O796   1.373       .  S
C792        C793   1.409       .  A
C792        H797   1.083       .  S
C793        C794   1.411       .  A
C794        O798   1.371       .  S
C795        C800   1.407       .  A
C795        C804   1.400       .  A
O796        H812   0.992       .  S
C800        C801   1.396       .  A
C800        O805   1.373       .  S
C801        C802   1.400       .  A
C801        H806   1.084       .  S
C802        C803   1.405       .  A
C803        C804   1.392       .  A
C803        O807   1.372       .  S
C804        H808   1.084       .  S
O805        H810   0.992       .  S
O807        H811   0.992       .  S
C813        C814   1.398       .  A
C813        C818   1.395       .  A
C813        H823   1.084       .  S
C814        C819   1.474       .  S
C814        C815   1.408       .  A
C815        C816   1.401       .  A
C815        O820   1.372       .  S
C816        C817   1.403       .  A
C816        H821   1.082       .  S
C817        C818   1.408       .  A
C818        O822   1.371       .  S
C819        C824   1.402       .  A
C819        C828   1.405       .  A
O820        H836   0.992       .  S
O822        H833   0.991       .  S
C824        C825   1.393       .  A
C824        O829   1.372       .  S
C825        C826   1.410       .  A
C825        H830   1.083       .  S
C826        C827   1.410       .  A
C827        C828   1.402       .  A
C827        O831   1.371       .  S
C828        H832   1.084       .  S
O829       H2198   0.992       .  S
O831        H835   0.992       .  S
H834       O2193   0.992       .  S
C837        C838   1.402       .  A
C837        C842   1.396       .  A
C837        H847   1.084       .  S
C838        C843   1.464       .  S
C838        C839   1.402       .  A
C839        C840   1.393       .  A
C839        O844   1.372       .  S
C840        C841   1.403       .  A
C840        H845   1.084       .  S
C841        C842   1.407       .  A
C842        O846   1.372       .  S
C843        C848   1.405       .  A
C843        C852   1.396       .  A
O844        H860   0.991       .  S
O846        H857   0.990       .  S
C848        C849   1.398       .  A
C848        O853   1.372       .  S
C849        C850   1.405       .  A
C849        H854   1.083       .  S
C850        C851   1.414       .  A
C851        C852   1.393       .  A
C851        O855   1.372       .  S
C852        H856   1.084       .  S
O853       H2222   0.992       .  S
H858       O2217   0.992       .  S
C861        C862   1.404       .  A
C861        C866   1.398       .  A
C861        H871   1.083       .  S
C862        C867   1.483       .  S
C862        C863   1.411       .  A
C863        C864   1.400       .  A
C863        O868   1.371       .  S
C864        C865   1.399       .  A
C864        H869   1.084       .  S
C865        C866   1.406       .  A
C866        O870   1.372       .  S
C867        C872   1.407       .  A
C867        C876   1.406       .  A
O868        H884   0.991       .  S
O870        H881   0.992       .  S
C872        C873   1.397       .  A
C872        O877   1.372       .  S
C873        C874   1.405       .  A
C873       H2242   1.083       .  S
C874        C875   1.406       .  A
C875        C876   1.402       .  A
C875        O879   1.369       .  S
C876        H880   1.084       .  S
O877       H2246   0.992       .  S
H878       C2237   1.083   1_455  S
O879        H883   0.991       .  S
H882       O2241   0.992   1_455  S
C885        C886   1.411       .  A
C885        C890   1.404       .  A
C885        H895   1.082       .  S
C886        C891   1.504       .  S
C886        C887   1.417       .  A
C887        C888   1.399       .  A
C887        O892   1.371       .  S
C888        C889   1.397       .  A
C888        H893   1.081       .  S
C889        C890   1.405       .  A
C890       O2258   1.371       .  S
C891        C896   1.418       .  A
C891        C900   1.407       .  A
O892        H908   0.992       .  S
O894       C2254   1.371   1_455  S
O894        H905   0.991       .  S
C896        C897   1.408       .  A
C896        O901   1.373       .  S
C897        C898   1.403       .  A
C897        H902   1.083       .  S
C898        C899   1.410       .  A
C899        C900   1.397       .  A
C899        O903   1.371       .  S
C900        H904   1.082       .  S
O901        H906   0.992       .  S
O903        H907   0.991       .  S
C909        C910   1.406       .  A
C909        C914   1.404       .  A
C909        H919   1.083       .  S
C910        C915   1.486       .  S
C910        C911   1.409       .  A
C911        C912   1.399       .  A
C911        O916   1.372       .  S
C912        C913   1.404       .  A
C912        H917   1.084       .  S
C913        C914   1.406       .  A
C914        O918   1.371       .  S
C915        C920   1.411       .  A
C915        C924   1.402       .  A
O916        H932   0.992       .  S
O918        H929   0.991       .  S
C920        C921   1.405       .  A
C920        O925   1.372       .  S
C921        C922   1.402       .  A
C922        C923   1.409       .  A
C923        C924   1.400       .  A
C923        O927   1.373       .  S
C924        H928   1.084       .  S
O925        H930   0.992       .  S
O927        H931   0.992       .  S
C933        C934   1.402       .  A
C933        C938   1.399       .  A
C933        H943   1.083       .  S
C934        C939   1.481       .  S
C934        C935   1.408       .  A
C935        C936   1.399       .  A
C935        O940   1.371       .  S
C936        C937   1.404       .  A
C936        H941   1.083       .  S
C937        C938   1.409       .  A
C938        O942   1.371       .  S
C939        C944   1.406       .  A
C939        C948   1.402       .  A
O940        H956   0.992       .  S
O942        H953   0.992       .  S
C944        C945   1.399       .  A
C944        O949   1.372       .  S
C945        C946   1.408       .  A
C945        H950   1.083       .  S
C946        C947   1.414       .  A
C947        C948   1.400       .  A
C947        O951   1.371       .  S
C948        H952   1.084       .  S
O951        H955   0.992       .  S
C957        C958   1.401       .  A
C957        C962   1.397       .  A
C957        H967   1.084       .  S
C958        C963   1.481       .  S
C958        C959   1.409       .  A
C959        C960   1.399       .  A
C959        O964   1.372       .  S
C960        C961   1.407       .  A
C960        H965   1.083       .  S
C961        C962   1.414       .  A
C962        O966   1.372       .  S
C963        C968   1.412       .  A
C963        C972   1.402       .  A
O964        H980   0.992       .  S
O966       H2341   0.992       .  S
C968        C969   1.399       .  A
C968        O973   1.371       .  S
C969        C970   1.401       .  A
C969        H974   1.083       .  S
C970        C971   1.407       .  A
C971        C972   1.394       .  A
C971        O975   1.371       .  S
C972        H976   1.083       .  S
O973        H978   0.992       .  S
O975        H979   0.992       .  S
H977       O2330   0.992       .  S
C981        C982   1.403       .  A
C981        C986   1.399       .  A
C981        H991   1.083       .  S
C982        C987   1.482       .  S
C982        C983   1.409       .  A
C983        C984   1.400       .  A
C983        O988   1.371       .  S
C984        C985   1.401       .  A
C984        H989   1.084       .  S
C985        C986   1.406       .  A
C986        O990   1.372       .  S
C987        C992   1.410       .  A
C987        C996   1.402       .  A
O988       H1004   0.992       .  S
O990       H1001   0.990       .  S
C992        C993   1.400       .  A
C992        O997   1.373       .  S
C993        C994   1.403       .  A
C993        H998   1.084       .  S
C994        C995   1.413       .  A
C995        C996   1.399       .  A
C995        O999   1.372       .  S
C996       H1000   1.084       .  S
O997       H1002   0.992       .  S
O999       H2367   0.992       .  S
H1003      O2363   0.992       .  S
C1005      C1006   1.408       .  A
C1005      C1010   1.406       .  A
C1005      H1015   1.083       .  S
C1006      C1011   1.491       .  S
C1006      C1007   1.410       .  A
C1007      C1008   1.400       .  A
C1007      O1012   1.371       .  S
C1008      C1009   1.403       .  A
C1008      H1013   1.084       .  S
C1009      C1010   1.406       .  A
C1010      O2378   1.371       .  S
C1011      C1016   1.412       .  A
C1011      C1020   1.405       .  A
O1012      H1028   0.991       .  S
O1014      C2374   1.371   1_455  S
O1014      H1025   0.991       .  S
C1016      C1017   1.405       .  A
C1016      O1021   1.371       .  S
C1017      C1018   1.402       .  A
C1017      H1022   1.084       .  S
C1018      C1019   1.409       .  A
C1019      C1020   1.401       .  A
C1019      O1023   1.371       .  S
C1020      H1024   1.083       .  S
O1021      H1026   0.992       .  S
O1023      H1027   0.991       .  S
C1029      C1030   1.408       .  A
C1029      C1034   1.396       .  A
C1029      H1039   1.082       .  S
C1030      C1035   1.497       .  S
C1030      C1031   1.418       .  A
C1031      C1032   1.404       .  A
C1031      O1036   1.374       .  S
C1032      C1033   1.396       .  A
C1032      H1037   1.084       .  S
C1033      C1034   1.402       .  A
C1034      O1038   1.369       .  S
C1035      C1040   1.413       .  A
C1035      C1044   1.409       .  A
O1036      H1052   0.992       .  S
O1038      H1049   0.991       .  S
C1040      C1041   1.402       .  A
C1040      O1045   1.375       .  S
C1041      C1042   1.396       .  A
C1041      H1046   1.073       .  S
C1042      C1043   1.405       .  A
C1043      C1044   1.405       .  A
C1043      O1047   1.378       .  S
C1044      H1048   1.082       .  S
O1045      H1050   0.992       .  S
O1047      H1051   0.992       .  S
C1053      C1054   1.398       .  A
C1053      C1058   1.399       .  A
C1053      H1063   1.084       .  S
C1054      C1059   1.473       .  S
C1054      C1055   1.407       .  A
C1055      C1056   1.401       .  A
C1055      O1060   1.372       .  S
C1056      C1057   1.402       .  A
C1056      H1061   1.084       .  S
C1057      C1058   1.412       .  A
C1058      O1062   1.374       .  S
C1059      C1064   1.403       .  A
C1059      C1068   1.400       .  A
O1060      H1076   0.992       .  S
O1062      H1073   0.992       .  S
C1064      C1065   1.398       .  A
C1064      O1069   1.372       .  S
C1065      C1066   1.408       .  A
C1065      H1070   1.083       .  S
C1066      C1067   1.406       .  A
C1067      C1068   1.401       .  A
C1067      O1071   1.366       .  S
C1068      H1072   1.084       .  S
O1069      H1074   0.992       .  S
O1071      H1075   0.992       .  S
C1077      C1078   1.403       .  A
C1077      C1082   1.394       .  A
C1077      H1087   1.084       .  S
C1078      C1083   1.475       .  S
C1078      C1079   1.408       .  A
C1079      C1080   1.397       .  A
C1079      O1084   1.373       .  S
C1080      C1081   1.400       .  A
C1080      H1085   1.083       .  S
C1081      C1082   1.405       .  A
C1082      O1086   1.370       .  S
C1083      C1088   1.406       .  A
C1083      C1092   1.404       .  A
O1084      H1100   0.992       .  S
O1086      H1097   0.991       .  S
C1088      C1089   1.393       .  A
C1088      O1093   1.372       .  S
C1089      C1090   1.405       .  A
C1089      H1094   1.084       .  S
C1090      C1091   1.410       .  A
C1091      C1092   1.397       .  A
C1091      O1095   1.372       .  S
C1092      H1096   1.084       .  S
O1093      H1098   0.992       .  S
O1095      H1099   0.992       .  S
C1101      C1102   1.403       .  A
C1101      C1106   1.398       .  A
C1101      H1111   1.084       .  S
C1102      C1107   1.474       .  S
C1102      C1103   1.406       .  A
C1103      C1104   1.397       .  A
C1103      O1108   1.373       .  S
C1104      C1105   1.401       .  A
C1104      H1109   1.084       .  S
C1105      C1106   1.408       .  A
C1106      O1110   1.372       .  S
C1107      C1112   1.406       .  A
C1107      C1116   1.399       .  A
O1108      H1124   0.992       .  S
O1110      H1121   0.991       .  S
C1112      C1113   1.397       .  A
C1112      O1117   1.372       .  S
C1113      C1114   1.405       .  A
C1113      H1118   1.083       .  S
C1114      C1115   1.414       .  A
C1115      C1116   1.397       .  A
C1115      O1119   1.372       .  S
C1116      H1120   1.084       .  S
O1117      H1122   0.992       .  S
O1119      H1123   0.992       .  S
C1125      C1126   1.404       .  A
C1125      C1130   1.400       .  A
C1125      H1135   1.084       .  S
C1126      C1131   1.483       .  S
C1126      C1127   1.408       .  A
C1127      C1128   1.401       .  A
C1127      O1132   1.372       .  S
C1128      C1129   1.404       .  A
C1128      H1133   1.083       .  S
C1129      C1130   1.406       .  A
C1130      O1134   1.369       .  S
C1131      C1136   1.408       .  A
C1131      C1140   1.404       .  A
O1132      H1148   0.992       .  S
O1134      H1145   0.991       .  S
C1136      C1137   1.401       .  A
C1136      O1141   1.372       .  S
C1137      C1138   1.407       .  A
C1137      H1142   1.084   1_565  S
C1138      C1139   1.410       .  A
C1139      C1140   1.399       .  A
C1139      O1143   1.371       .  S
C1140      H1144   1.084       .  S
O1141      H1146   0.992       .  S
O1143      H1147   0.992       .  S
C1149      C1150   1.408       .  A
C1149      C1154   1.402       .  A
C1149      H1159   1.083       .  S
C1150      C1155   1.500       .  S
C1150      C1151   1.416       .  A
C1151      C1152   1.406       .  A
C1151      O1156   1.373       .  S
C1152      C1153   1.401       .  A
C1152      H1157   1.084       .  S
C1153      C1154   1.404       .  A
C1155      C1160   1.411       .  A
C1155      C1164   1.411       .  A
O1156      H1172   0.992       .  S
O1158      H1169   0.991       .  S
C1160      C1161   1.400       .  A
C1160      O1165   1.371       .  S
C1161      C1162   1.407       .  A
C1161      H1166   1.083       .  S
C1162      C1163   1.407       .  A
C1163      C1164   1.405       .  A
C1163      O1167   1.371       .  S
C1164      H1168   1.083       .  S
O1165      H1170   0.992       .  S
O1167      H1171   0.992       .  S
C1173      C1174   1.413       .  A
C1173      C1178   1.406       .  A
C1173      H1183   1.082       .  S
C1174      C1179   1.506       .  S
C1174      C1175   1.415       .  A
C1175      C1176   1.397       .  A
C1175      O1180   1.371       .  S
C1176      C1177   1.404       .  A
C1176      H1181   1.082       .  S
C1177      C1178   1.406       .  A
C1178      O1182   1.371   1_565  S
C1179      C1184   1.418       .  A
C1179      C1188   1.412       .  A
O1180      H1196   0.992       .  S
C1184      C1185   1.402       .  A
C1184      O1189   1.371       .  S
C1185      C1186   1.399       .  A
C1185      H1190   1.084       .  S
C1186      C1187   1.402       .  A
C1187      C1188   1.404       .  A
C1187      O1191   1.375       .  S
C1188      H1192   1.081       .  S
O1189      H1194   0.992       .  S
O1191      H1195   0.991       .  S
C1197      C1198   1.411       .  A
C1197      C1202   1.405       .  A
C1197      H1207   1.081       .  S
C1198      C1203   1.506       .  S
C1198      C1199   1.417       .  A
C1199      C1200   1.404       .  A
C1199      O1204   1.371       .  S
C1200      C1201   1.401       .  A
C1200      H1205   1.083       .  S
C1201      C1202   1.404       .  A
C1202      O1206   1.374       .  S
C1203      C1208   1.412       .  A
C1203      C1212   1.412       .  A
O1204      H1220   0.992       .  S
O1206      H1217   0.991       .  S
C1208      C1209   1.401       .  A
C1208      O1213   1.373       .  S
C1209      C1210   1.407       .  A
C1209      H1214   1.081       .  S
C1210      C1211   1.408       .  A
C1211      C1212   1.409       .  A
C1211      O2579   1.371   1_455  S
C1212      H1216   1.082       .  S
O1213      H1218   0.992       .  S
O1215      C2575   1.371       .  S
O1215      H1219   0.990       .  S
C1221      C1222   1.404       .  A
C1221      C1226   1.398       .  A
C1221      H1231   1.084       .  S
C1222      C1227   1.478       .  S
C1222      C1223   1.408       .  A
C1223      C1224   1.399       .  A
C1223      O1228   1.373       .  S
C1224      C1225   1.400       .  A
C1224      H1229   1.084       .  S
C1225      C1226   1.404       .  A
C1226      O1230   1.372       .  S
C1227      C1232   1.409       .  A
C1227      C1236   1.399       .  A
O1228      H1244   0.992       .  S
O1230      H1241   0.992       .  S
C1232      C1233   1.399       .  A
C1232      O1237   1.371       .  S
C1233      C1234   1.405       .  A
C1233      H1238   1.083       .  S
C1234      C1235   1.416       .  A
C1235      C1236   1.396       .  A
C1235      O1239   1.372       .  S
C1236      H1240   1.084       .  S
O1237      H1242   0.992       .  S
O1239      H1243   0.992       .  S
C1245      C1246   1.400       .  A
C1245      C1250   1.397       .  A
C1245      H1255   1.084       .  S
C1246      C1251   1.476       .  S
C1246      C1247   1.408       .  A
C1247      C1248   1.401       .  A
C1247      O1252   1.372       .  S
C1248      C1249   1.402       .  A
C1248      H1253   1.084       .  S
C1249      C1250   1.408       .  A
C1250      O1254   1.372       .  S
C1251      C1256   1.403       .  A
C1251      C1260   1.403       .  A
O1252      H1268   0.992       .  S
O1254      H1265   0.992       .  S
C1256      C1257   1.395       .  A
C1256      O1261   1.372       .  S
C1257      C1258   1.410       .  A
C1257      H1262   1.083       .  S
C1258      C1259   1.413       .  A
C1259      C1260   1.403       .  A
C1260      H1264   1.084       .  S
O1261      H1266   0.992       .  S
O1263      H1267   0.992       .  S
C1269      C1270   1.397       .  A
C1269      C1274   1.394       .  A
C1269      H1279   1.084       .  S
C1270      C1275   1.469       .  S
C1270      C1271   1.407       .  A
C1271      C1272   1.402       .  A
C1271      O1276   1.371       .  S
C1272      C1273   1.404       .  A
C1272      H1277   1.083       .  S
C1273      C1274   1.412       .  A
C1274      O1278   1.372       .  S
C1275      C1280   1.403       .  A
C1275      C1284   1.402       .  A
O1276      H1292   0.992       .  S
O1278      H1289   0.992   1_565  S
C1280      C1281   1.396       .  A
C1280      O1285   1.372       .  S
C1281      C1282   1.404       .  A
C1281      H1286   1.084       .  S
C1282      C1283   1.405       .  A
C1283      C1284   1.401       .  A
C1283      O1287   1.372       .  S
C1284      H1288   1.084       .  S
O1285      H1290   0.992       .  S
O1287      H1291   0.992       .  S
C1293      C1294   1.407       .  A
C1293      C1298   1.405       .  A
C1293      H1303   1.083       .  S
C1294      C1299   1.487       .  S
C1294      C1295   1.408       .  A
C1295      C1296   1.400       .  A
C1295      O1300   1.372       .  S
C1296      C1297   1.405       .  A
C1296      H1301   1.084       .  S
C1297      C1298   1.406       .  A
C1298      O1302   1.371       .  S
C1299      C1304   1.411       .  A
C1299      C1308   1.403       .  A
O1300      H1316   0.992       .  S
O1302      H1313   0.991       .  S
C1304      C1305   1.405       .  A
C1304      O1309   1.371       .  S
C1305      C1306   1.403       .  A
C1305      H1310   1.084       .  S
C1306      C1307   1.410       .  A
C1307      C1308   1.401       .  A
C1307      O1311   1.372   1_455  S
C1308      H1312   1.083       .  S
O1309      H1314   0.991       .  S
O1311      H1315   0.991       .  S
C1317      C1318   1.404       .  A
C1317      C1322   1.403       .  A
C1317      H1327   1.083       .  S
C1318      C1323   1.493       .  S
C1318      C1319   1.412       .  A
C1319      C1320   1.407       .  A
C1319      O1324   1.371       .  S
C1320      C1321   1.404       .  A
C1320      H1325   1.084       .  S
C1321      C1322   1.410       .  A
C1322      O1326   1.373       .  S
C1323      C1328   1.409       .  A
C1323      C1332   1.408       .  A
O1324      H1340   0.992       .  S
O1326      H1337   0.992       .  S
C1328      C1329   1.401       .  A
C1328      O1333   1.371       .  S
C1329      C1330   1.404       .  A
C1329      H1334   1.082       .  S
C1330      C1331   1.408       .  A
C1331      C1332   1.407       .  A
C1332      H1336   1.083       .  S
O1333      H1338   0.992       .  S
O1335      H1339   0.991       .  S
C1341      C1342   1.409       .  A
C1341      C1346   1.406       .  A
C1341      H1351   1.083       .  S
C1342      C1347   1.494       .  S
C1342      C1343   1.410       .  A
C1343      C1344   1.399       .  A
C1343      O1348   1.372       .  S
C1344      C1345   1.405       .  A
C1344      H1349   1.084   1_565  S
C1345      C1346   1.407       .  A
C1346      O1350   1.372   1_455  S
C1347      C1352   1.413       .  A
C1347      C1356   1.406       .  A
O1348      H1364   0.992       .  S
O1350      H1361   0.992       .  S
C1352      C1353   1.406       .  A
C1352      O1357   1.372       .  S
C1353      C1354   1.402       .  A
C1353      H1358   1.084       .  S
C1354      C1355   1.406       .  A
C1355      C1356   1.403       .  A
C1355      O1359   1.373       .  S
C1356      H1360   1.083       .  S
O1357      H1362   0.992       .  S
O1359      H1363   0.992       .  S
C1365      H1366   1.111       .  S
C1365      C1371   1.549       .  S
C1365      C1370   1.554       .  S
C1365      C1369   1.550       .  S
C1367      H1368   1.112       .  S
C1367      C1373   1.522       .  S
C1367      C1372   1.520       .  S
C1367      C1374   1.519       .  S
C1369      C1372   1.373       .  D
C1369      C2036   1.485       .  S
C1370      C1373   1.377       .  D
C1370      C2003   1.492       .  S
C1371      C1374   1.369       .  D
C1371      C1979   1.487       .  S
C1372      C1964   1.475       .  S
C1373      C1931   1.479       .  S
C1374      C1907   1.473       .  S
C1375      H1376   1.110       .  S
C1375      C1381   1.542       .  S
C1375      C1380   1.553       .  S
C1375      C1379   1.553       .  S
C1377      H1378   1.112       .  S
C1377      C1383   1.519       .  S
C1377      C1382   1.523       .  S
C1377      C1384   1.526       .  S
C1379      C1382   1.379       .  D
C1379      C1844   1.499       .  S
C1380      C1383   1.372       .  D
C1380      C1868   1.480       .  S
C1381      C1384   1.370       .  D
C1381      C1883   1.487       .  S
C1382      C1787   1.478       .  S
C1383      C1811   1.483       .  S
C1384      C1763   1.470       .  S
C1385      H1386   1.111       .  S
C1385      C1390   1.538       .  S
C1385      C2071   1.543   1_545  S
C1387      C1393   1.549       .  S
C1387      C2074   1.538   1_545  S
C1389      C2067   1.543       .  S
C1389      C1392   1.378       .  D
C1389      C2027   1.490       .  S
C1390      C1393   1.382       .  D
C1390      C1988   1.490       .  S
C1391      C1394   1.374       .  D
C1391      C2012   1.494       .  S
C1392      C2069   1.538       .  S
C1392      C1859   1.497       .  S
C1393      C1892   1.506       .  S
C1394      C1835   1.484       .  S
C1395      H1396   1.111       .  S
C1395      C1401   1.547       .  S
C1395      C1400   1.538       .  S
C1395      C1399   1.546       .  S
C1397      H1398   1.111       .  S
C1397      C1403   1.527       .  S
C1397      C1402   1.527       .  S
C1397      C1404   1.524       .  S
C1399      C1402   1.377       .  D
C1399      C1739   1.483       .  S
C1400      C1403   1.370       .  D
C1400      C1715   1.475       .  S
C1401      C1404   1.372       .  D
C1401      C1700   1.487       .  S
C1402      C1619   1.487       .  S
C1403      C1667   1.477       .  S
C1404      C1652   1.477       .  S
C1405      H1406   1.112       .  S
C1405      C1411   1.515       .  S
C1405      C1410   1.521       .  S
C1405      C1409   1.517       .  S
C1407      H1408   1.111       .  S
C1407      C1413   1.551       .  S
C1407      C1412   1.545       .  S
C1407      C1414   1.550       .  S
C1409      C1412   1.369       .  D
C1409      C1484   1.468       .  S
C1410      C1413   1.379       .  D
C1410      C1523   1.473       .  S
C1411      C1414   1.371       .  D
C1411      C1499   1.481       .  S
C1412      C1595   1.484       .  S
C1413      C1580   1.495       .  S
C1414      C1547   1.473       .  S
C1415      H1416   1.111       .  S
C1415      C1421   1.532       .  S
C1417      H1418   1.111       .  S
C1417      C1424   1.545   1_565  S
C1419      C1422   1.376       .  D
C1419      C1571   1.487       .  S
C1420      C1423   1.377       .  D
C1420      C1556   1.487       .  S
C1421      C1424   1.376       .  D
C1421      C1604   1.489       .  S
C1422      C1724   1.488       .  S
C1423      C1691   1.488       .  S
C1424      C1748   1.492       .  S
Zn1425     O1429   1.958       .  S
Zn1425     O2112   2.010       .  S
Zn1425     O1434   2.021       .  S
Zn1425     O1441   2.005       .  S
Zn1426     O1431   2.051       .  S
Zn1426     O1437   2.023       .  S
Zn1427     O1429   1.917   1_554  S
Zn1427     O1432   1.961       .  S
Zn1428     O1436   2.019       .  S
Zn1428     O2121   1.987   1_545  S
O1430     Zn2107   2.011       .  S
O1430      C1442   1.274       .  A
O1431      C1443   1.277   1_556  A
O1432      C1444   1.267       .  A
O1433      C1442   1.276       .  A
O1434      C1444   1.273   1_556  A
O1435      C1443   1.267       .  A
O1436      C1445   1.272   1_556  A
O1437      C1446   1.276       .  A
O1438      C1445   1.266       .  A
O1439     Zn2110   1.987       .  S
O1439      C1446   1.271       .  A
O1440      C1447   1.271       .  A
O1441      C1447   1.272       .  A
C1442      C1820   1.483       .  S
C1443      C1508   1.483       .  S
C1444      C1475   1.477       .  S
C1445      C1532   1.474       .  S
C1446      C1796   1.479       .  S
C1447      C1772   1.473       .  S
Zn1448     O1453   2.026       .  S
Zn1448     O2139   2.026       .  S
Zn1448     O1464   2.048       .  S
Zn1449     O2134   1.958       .  S
Zn1449     O2136   2.010       .  S
Zn1449     O1460   2.035       .  S
Zn1450     O1452   1.960   1_545  S
Zn1450     O1458   2.018       .  S
Zn1450     O1461   2.037       .  S
Zn1451     O1452   1.924       .  S
Zn1451     O1459   1.971   1_565  S
Zn1451     O2144   1.975       .  S
O1452     Zn2131   1.958       .  S
O1453      C1465   1.276       .  A
O1454     Zn2131   2.009   1_545  S
O1454      C1466   1.273       .  A
O1455      C1467   1.273       .  A
O1456      C1465   1.273       .  A
O1457     Zn2130   2.027   1_545  S
O1457      C1467   1.276       .  A
O1458      C1466   1.274       .  A
O1459      C1468   1.267       .  A
O1460      C1469   1.274       .  A
O1461      C1468   1.276       .  A
O1462     Zn2133   1.977       .  S
O1462      C1469   1.268       .  A
O1463      C1470   1.270       .  A
O1464      C1470   1.276       .  A
C1465      C1643   1.485       .  S
C1466      C1628   1.487       .  S
C1467      C1676   1.478       .  S
C1468      C1916   1.483       .  S
C1469      C1955   1.474       .  S
C1470      C1940   1.488       .  S
C1471      C1472   1.402       .  A
C1471      C1476   1.397       .  A
C1471      H1481   1.084       .  S
C1472      C1477   1.466       .  S
C1472      C1473   1.401       .  A
C1473      C1474   1.393       .  A
C1473      O1478   1.373       .  S
C1474      C1475   1.409       .  A
C1474      H1479   1.083       .  S
C1475      C1476   1.411       .  A
C1476      O1480   1.371       .  S
C1477      C1482   1.407       .  A
C1477      C1486   1.400       .  A
O1478      H1494   0.992       .  S
O1480      H2173   0.992       .  S
C1482      C1483   1.396       .  A
C1482      O1487   1.372       .  S
C1483      C1484   1.400       .  A
C1483      H1488   1.083       .  S
C1484      C1485   1.405       .  A
C1485      C1486   1.392       .  A
C1485      O1489   1.372       .  S
C1486      H1490   1.084       .  S
O1487      H1492   0.992       .  S
O1489      H1493   0.992       .  S
H1491      O2162   0.992       .  S
C1495      C1496   1.398       .  A
C1495      C1500   1.396       .  A
C1495      H1505   1.084       .  S
C1496      C1501   1.474       .  S
C1496      C1497   1.408       .  A
C1497      C1498   1.401       .  A
C1497      O1502   1.372       .  S
C1498      C1499   1.403       .  A
C1498      H1503   1.083       .  S
C1499      C1500   1.408       .  A
C1500      O1504   1.371       .  S
C1501      C1506   1.402       .  A
C1501      C1510   1.405       .  A
O1502      H1518   0.992       .  S
O1504      H1515   0.991       .  S
C1506      C1507   1.393       .  A
C1506      O1511   1.372       .  S
C1507      C1508   1.410       .  A
C1507      H1512   1.083       .  S
C1508      C1509   1.410       .  A
C1509      C1510   1.402       .  A
C1509      O1513   1.371       .  S
C1510      H1514   1.084       .  S
O1513      H1517   0.992       .  S
C1519      C1520   1.402       .  A
C1519      C1524   1.396       .  A
C1519      H1529   1.084       .  S
C1520      C1525   1.464       .  S
C1520      C1521   1.402       .  A
C1521      C1522   1.393       .  A
C1521      O1526   1.372       .  S
C1522      C1523   1.403       .  A
C1522      H1527   1.084       .  S
C1523      C1524   1.408       .  A
C1524      O1528   1.372       .  S
C1525      C1530   1.405       .  A
C1525      C1534   1.396       .  A
O1526      H1542   0.991       .  S
O1528      H1539   0.990       .  S
C1530      C1531   1.398       .  A
C1530      O1535   1.372       .  S
C1531      C1532   1.405       .  A
C1531      H1536   1.083       .  S
C1532      C1533   1.414       .  A
C1533      C1534   1.393       .  A
C1533      O1537   1.372       .  S
C1534      H1538   1.084       .  S
O1537      H2223   0.992       .  S
H1541      O2219   0.992       .  S
C1543      C1544   1.404       .  A
C1543      C1548   1.398       .  A
C1543      H1553   1.083       .  S
C1544      C1549   1.483       .  S
C1544      C1545   1.411       .  A
C1545      C1546   1.400       .  A
C1545      O1550   1.371       .  S
C1546      C1547   1.399       .  A
C1546      H1551   1.084       .  S
C1547      C1548   1.406       .  A
C1548      O1552   1.372       .  S
C1549      C1554   1.407       .  A
C1549      C1558   1.406       .  A
O1550      H1566   0.991       .  S
O1552      H1563   0.992       .  S
C1554      C1555   1.397       .  A
C1554      O1559   1.372       .  S
C1555      C1556   1.405       .  A
C1556      C1557   1.406       .  A
C1557      C1558   1.402       .  A
C1557      O1561   1.369       .  S
C1558      H1562   1.084       .  S
O1561      H1565   0.991       .  S
C1567      C1568   1.411       .  A
C1567      C1572   1.404       .  A
C1567      H1577   1.082       .  S
C1568      C1573   1.504       .  S
C1568      C1569   1.417       .  A
C1569      C1570   1.399       .  A
C1569      O1574   1.371       .  S
C1570      C1571   1.397       .  A
C1570      H1575   1.081   1_545  S
C1571      C1572   1.405       .  A
C1573      C1578   1.418       .  A
C1573      C1582   1.407       .  A
O1574      H1590   0.992       .  S
O1576      H1587   0.991       .  S
C1578      C1579   1.409       .  A
C1578      O1583   1.373       .  S
C1579      C1580   1.403       .  A
C1579      H1584   1.083       .  S
C1580      C1581   1.410       .  A
C1581      C1582   1.397       .  A
C1581      O1585   1.371       .  S
C1582      H1586   1.082       .  S
O1583      H1588   0.992       .  S
O1585      H1589   0.991       .  S
C1591      C1592   1.406       .  A
C1591      C1596   1.404       .  A
C1591      H1601   1.083       .  S
C1592      C1597   1.487       .  S
C1592      C1593   1.409       .  A
C1593      C1594   1.399       .  A
C1593      O1598   1.372       .  S
C1594      C1595   1.404       .  A
C1594      H1599   1.084       .  S
C1595      C1596   1.406       .  A
C1596      O1600   1.371       .  S
C1597      C1602   1.411       .  A
C1597      C1606   1.402       .  A
O1598      H1614   0.992       .  S
O1600      H1611   0.991       .  S
C1602      C1603   1.405       .  A
C1602      O1607   1.372       .  S
C1603      C1604   1.402       .  A
C1603      H2290   1.084   1_545  S
C1604      C1605   1.410       .  A
C1605      C1606   1.401       .  A
C1605      O1609   1.374       .  S
C1606      H1610   1.084       .  S
O1607      H1612   0.992       .  S
H1608      C2285   1.084       .  S
O1609      H1613   0.992       .  S
C1615      C1616   1.402       .  A
C1615      C1620   1.399       .  A
C1615      H1625   1.083       .  S
C1616      C1621   1.480       .  S
C1616      C1617   1.408       .  A
C1617      C1618   1.399       .  A
C1617      O1622   1.371       .  S
C1618      C1619   1.404       .  A
C1618      H1623   1.083       .  S
C1619      C1620   1.409       .  A
C1620      O1624   1.371       .  S
C1621      C1626   1.406       .  A
C1621      C1630   1.402       .  A
O1622      H1638   0.992       .  S
O1624      H1635   0.992       .  S
C1626      C1627   1.399       .  A
C1626      O1631   1.372       .  S
C1627      C1628   1.408       .  A
C1627      H1632   1.083       .  S
C1628      C1629   1.414       .  A
C1629      C1630   1.400       .  A
C1629      O1633   1.371       .  S
C1630      H1634   1.084       .  S
O1631      H2318   0.992       .  S
O1633      H1637   0.992       .  S
H1636      O2313   0.992       .  S
C1639      C1640   1.401       .  A
C1639      C1644   1.397       .  A
C1639      H1649   1.084       .  S
C1640      C1645   1.481       .  S
C1640      C1641   1.408       .  A
C1641      C1642   1.399       .  A
C1641      O1646   1.372       .  S
C1642      C1643   1.407       .  A
C1642      H1647   1.083       .  S
C1643      C1644   1.414       .  A
C1644      O1648   1.372       .  S
C1645      C1650   1.412       .  A
C1645      C1654   1.402       .  A
O1646      H1662   0.992       .  S
C1650      C1651   1.399       .  A
C1650      O1655   1.371       .  S
C1651      C1652   1.401       .  A
C1651      H1656   1.083       .  S
C1652      C1653   1.407       .  A
C1653      C1654   1.394       .  A
C1653      O1657   1.371       .  S
C1654      H1658   1.083       .  S
O1655      H1660   0.992       .  S
O1657      H1661   0.992       .  S
C1663      C1664   1.402       .  A
C1663      C1668   1.398       .  A
C1663      H1673   1.083       .  S
C1664      C1669   1.481       .  S
C1664      C1665   1.409       .  A
C1665      C1666   1.400       .  A
C1665      O1670   1.371       .  S
C1666      C1667   1.401       .  A
C1666      H1671   1.084       .  S
C1667      C1668   1.406       .  A
C1668      O1672   1.372       .  S
C1669      C1674   1.410       .  A
C1669      C1678   1.402       .  A
O1670      H1686   0.992       .  S
O1672      H1683   0.990       .  S
C1674      C1675   1.400       .  A
C1674      O1679   1.373       .  S
C1675      C1676   1.402       .  A
C1675      H1680   1.084       .  S
C1676      C1677   1.413       .  A
C1677      C1678   1.399       .  A
C1677      O1681   1.372   1_655  S
C1678      H1682   1.084       .  S
O1679      H1684   0.992       .  S
C1687      C1688   1.409       .  A
C1687      C1692   1.405       .  A
C1687      H1697   1.083       .  S
C1688      C1693   1.492       .  S
C1688      C1689   1.410       .  A
C1689      C1690   1.400       .  A
C1689      O1694   1.371       .  S
C1690      C1691   1.403       .  A
C1690      H1695   1.084       .  S
C1691      C1692   1.406       .  A
C1693      C1698   1.412       .  A
C1693      C1702   1.405       .  A
O1694      H1710   0.991       .  S
O1696      H1707   0.991       .  S
C1698      C1699   1.404       .  A
C1698      O1703   1.371       .  S
C1699      C1700   1.402       .  A
C1699      H1704   1.084       .  S
C1700      C1701   1.409       .  A
C1701      C1702   1.401       .  A
C1701      O1705   1.371       .  S
C1702      H1706   1.083       .  S
O1703      H1708   0.992       .  S
O1705      H1709   0.991       .  S
C1711      C1712   1.408       .  A
C1711      C1716   1.396       .  A
C1711      H1721   1.082       .  S
C1712      C1717   1.497       .  S
C1712      C1713   1.418       .  A
C1713      C1714   1.404       .  A
C1713      O1718   1.374       .  S
C1714      C1715   1.396       .  A
C1714      H1719   1.084       .  S
C1715      C1716   1.401       .  A
C1716      O1720   1.369       .  S
C1717      C1722   1.413       .  A
C1717      C1726   1.409       .  A
O1718      H1734   0.992       .  S
O1720      H1731   0.992       .  S
C1722      C1723   1.402       .  A
C1722      O1727   1.374       .  S
C1723      C1724   1.396       .  A
C1723      H1728   1.072   1_655  S
C1724      C1725   1.405       .  A
C1725      C1726   1.405       .  A
C1725      O1729   1.378   1_545  S
C1726      H1730   1.082       .  S
O1727      H1732   0.992   1_655  S
O1729      H1733   0.992       .  S
C1735      C1736   1.398       .  A
C1735      C1740   1.399       .  A
C1735      H1745   1.084       .  S
C1736      C1741   1.473       .  S
C1736      C1737   1.407       .  A
C1737      C1738   1.401       .  A
C1737      O1742   1.372       .  S
C1738      C1739   1.402       .  A
C1738      H1743   1.084       .  S
C1739      C1740   1.412       .  A
C1740      O1744   1.374       .  S
C1741      C1746   1.403       .  A
C1741      C1750   1.400       .  A
O1742      H1758   0.992       .  S
O1744      H1755   0.992       .  S
C1746      C1747   1.398       .  A
C1746      O1751   1.372       .  S
C1747      C1748   1.408       .  A
C1747      H1752   1.083   1_545  S
C1748      C1749   1.406       .  A
C1749      C1750   1.401       .  A
C1749      O1753   1.366       .  S
C1750      H1754   1.084       .  S
O1751      H1756   0.992       .  S
O1753      H1757   0.992       .  S
C1759      C1760   1.403       .  A
C1759      C1764   1.394       .  A
C1759      H1769   1.084       .  S
C1760      C1765   1.475       .  S
C1760      C1761   1.408       .  A
C1761      C1762   1.396       .  A
C1761      O1766   1.373       .  S
C1762      C1763   1.399       .  A
C1762      H1767   1.083       .  S
C1763      C1764   1.405       .  A
C1764      O1768   1.370       .  S
C1765      C1770   1.406       .  A
C1765      C1774   1.404       .  A
O1766      H1782   0.992       .  S
O1768      H1779   0.991       .  S
C1770      C1771   1.393       .  A
C1770      O1775   1.372       .  S
C1771      C1772   1.405       .  A
C1771      H1776   1.084       .  S
C1772      C1773   1.410       .  A
C1773      C1774   1.397       .  A
C1773      O1777   1.372       .  S
C1774      H1778   1.084       .  S
O1775      H1780   0.992       .  S
O1777      H1781   0.992       .  S
C1783      C1784   1.403       .  A
C1783      C1788   1.398       .  A
C1783      H1793   1.084       .  S
C1784      C1789   1.473       .  S
C1784      C1785   1.406       .  A
C1785      C1786   1.396       .  A
C1785      O1790   1.372       .  S
C1786      C1787   1.401       .  A
C1786      H1791   1.084       .  S
C1787      C1788   1.408       .  A
C1788      O1792   1.372       .  S
C1789      C1794   1.406       .  A
C1789      C1798   1.399       .  A
O1790      H1806   0.992       .  S
O1792      H1803   0.991       .  S
C1794      C1795   1.397       .  A
C1794      O1799   1.372       .  S
C1795      C1796   1.405       .  A
C1795      H1800   1.083       .  S
C1796      C1797   1.414       .  A
C1797      C1798   1.397       .  A
C1797      O1801   1.372       .  S
C1798      H1802   1.084       .  S
O1799      H1804   0.992       .  S
O1801      H1805   0.992       .  S
C1807      C1808   1.404       .  A
C1807      C1812   1.400       .  A
C1807      H1817   1.084       .  S
C1808      C1813   1.483       .  S
C1808      C1809   1.408       .  A
C1809      C1810   1.401       .  A
C1809      O1814   1.372       .  S
C1810      C1811   1.403       .  A
C1810      H1815   1.083       .  S
C1811      C1812   1.406       .  A
C1812      O1816   1.369       .  S
C1813      C1818   1.408       .  A
C1813      C1822   1.404       .  A
O1814      H1830   0.992       .  S
O1816      H1827   0.991       .  S
C1818      C1819   1.401       .  A
C1818      O1823   1.372       .  S
C1819      C1820   1.407       .  A
C1819      H1824   1.084       .  S
C1820      C1821   1.410       .  A
C1821      C1822   1.399       .  A
C1821      O1825   1.371       .  S
C1822      H1826   1.084       .  S
O1823      H1828   0.992       .  S
O1825      H1829   0.992       .  S
C1831      C1832   1.408       .  A
C1831      C1836   1.402       .  A
C1831      H1841   1.083       .  S
C1832      C1837   1.500       .  S
C1832      C1833   1.416       .  A
C1833      C1834   1.406       .  A
C1833      O1838   1.373       .  S
C1834      C1835   1.401       .  A
C1834      H1839   1.084       .  S
C1835      C1836   1.404       .  A
C1836      O2522   1.373       .  S
C1837      C1842   1.411       .  A
C1837      C1846   1.411       .  A
O1838      H1854   0.992       .  S
O1840      C2518   1.373   1_545  S
O1840      H1851   0.991       .  S
C1842      C1843   1.400       .  A
C1842      O1847   1.371       .  S
C1843      C1844   1.407       .  A
C1843      H1848   1.083       .  S
C1844      C1845   1.407       .  A
C1845      C1846   1.405       .  A
C1845      O1849   1.371       .  S
C1846      H1850   1.083       .  S
O1847      H1852   0.992       .  S
O1849      H1853   0.992       .  S
C1855      C1856   1.413       .  A
C1855      C1860   1.406       .  A
C1855      H1865   1.082       .  S
C1856      C1861   1.506       .  S
C1856      C1857   1.415       .  A
C1857      C1858   1.397       .  A
C1857      O1862   1.371       .  S
C1858      C1859   1.404       .  A
C1858      H1863   1.082       .  S
C1859      C1860   1.406       .  A
C1860      O1864   1.371       .  S
C1861      C1866   1.417       .  A
C1861      C1870   1.412       .  A
O1862      H1878   0.992       .  S
O1864      H2557   0.992       .  S
C1866      C1867   1.402       .  A
C1866      O1871   1.371       .  S
C1867      C1868   1.399       .  A
C1867      H1872   1.084       .  S
C1868      C1869   1.402       .  A
C1869      C1870   1.404       .  A
C1869      O1873   1.375       .  S
C1870      H1874   1.081       .  S
O1871      H1876   0.992       .  S
O1873      H1877   0.991       .  S
H1875      O2546   0.992       .  S
C1879      C1880   1.411       .  A
C1879      C1884   1.405       .  A
C1879      H1889   1.082       .  S
C1880      C1885   1.506       .  S
C1880      C1881   1.416       .  A
C1881      C1882   1.404       .  A
C1881      O1886   1.371       .  S
C1882      C1883   1.401       .  A
C1882      H1887   1.083       .  S
C1883      C1884   1.404       .  A
C1884      O1888   1.374       .  S
C1885      C1890   1.412       .  A
C1885      C1894   1.412       .  A
O1886      H1902   0.992       .  S
O1888      H1899   0.991       .  S
C1890      C1891   1.401       .  A
C1890      O1895   1.373       .  S
C1891      C1892   1.407       .  A
C1891      H1896   1.081       .  S
C1892      C1893   1.408       .  A
C1893      C1894   1.409       .  A
C1894      H1898   1.083       .  S
O1895      H1900   0.992       .  S
O1897      H1901   0.991       .  S
C1903      C1904   1.404       .  A
C1903      C1908   1.398       .  A
C1903      H1913   1.084       .  S
C1904      C1909   1.478       .  S
C1904      C1905   1.408       .  A
C1905      C1906   1.399       .  A
C1905      O1910   1.373       .  S
C1906      C1907   1.400       .  A
C1906      H1911   1.084       .  S
C1907      C1908   1.404       .  A
C1908      O1912   1.372       .  S
C1909      C1914   1.409       .  A
C1909      C1918   1.399       .  A
O1910      H1926   0.992       .  S
O1912      H1923   0.992       .  S
C1914      C1915   1.399       .  A
C1914      O1919   1.371       .  S
C1915      C1916   1.405       .  A
C1915      H1920   1.083       .  S
C1916      C1917   1.416       .  A
C1917      C1918   1.396       .  A
C1917      O1921   1.372       .  S
C1918      H1922   1.084       .  S
O1919      H1924   0.992       .  S
O1921      H1925   0.992       .  S
C1927      C1928   1.399       .  A
C1927      C1932   1.397       .  A
C1927      H1937   1.084       .  S
C1928      C1933   1.476       .  S
C1928      C1929   1.408       .  A
C1929      C1930   1.401       .  A
C1929      O1934   1.372       .  S
C1930      C1931   1.402       .  A
C1930      H1935   1.084       .  S
C1931      C1932   1.408       .  A
C1932      O1936   1.372       .  S
C1933      C1938   1.402       .  A
C1933      C1942   1.403       .  A
O1934      H1950   0.992       .  S
O1936      H1947   0.992       .  S
C1938      C1939   1.395       .  A
C1938      O1943   1.372       .  S
C1939      C1940   1.410       .  A
C1939      H1944   1.083       .  S
C1940      C1941   1.413       .  A
C1941      C1942   1.403       .  A
C1941      O2627   1.371       .  S
C1942      H1946   1.084       .  S
O1943      H1948   0.992       .  S
O1945      C2623   1.371       .  S
O1945      H1949   0.992       .  S
C1951      C1952   1.397       .  A
C1951      C1956   1.395       .  A
C1951      H1961   1.084       .  S
C1952      C1957   1.470       .  S
C1952      C1953   1.407       .  A
C1953      C1954   1.402       .  A
C1953      O1958   1.371       .  S
C1954      C1955   1.404       .  A
C1954      H1959   1.083       .  S
C1955      C1956   1.412       .  A
C1956      O1960   1.372       .  S
C1957      C1962   1.403       .  A
C1957      C1966   1.402       .  A
O1958      H1974   0.992       .  S
O1960      H1971   0.992       .  S
C1962      C1963   1.396       .  A
C1962      O1967   1.372       .  S
C1963      C1964   1.403       .  A
C1963      H1968   1.084       .  S
C1964      C1965   1.405       .  A
C1965      C1966   1.401       .  A
C1965      O1969   1.372       .  S
C1966      H1970   1.084       .  S
O1967      H1972   0.992       .  S
O1969      H1973   0.991       .  S
C1975      C1976   1.407       .  A
C1975      C1980   1.405       .  A
C1975      H1985   1.083       .  S
C1976      C1981   1.487       .  S
C1976      C1977   1.407       .  A
C1977      C1978   1.400       .  A
C1977      O1982   1.372       .  S
C1978      C1979   1.405       .  A
C1978      H1983   1.084       .  S
C1979      C1980   1.406       .  A
C1980      O1984   1.371       .  S
C1981      C1986   1.411       .  A
C1981      C1990   1.403       .  A
O1982      H1998   0.992       .  S
O1984      H1995   0.991       .  S
C1986      C1987   1.404       .  A
C1986      O1991   1.371       .  S
C1987      C1988   1.403       .  A
C1987      H1992   1.084       .  S
C1988      C1989   1.410       .  A
C1989      C1990   1.401       .  A
C1989      O1993   1.372       .  S
C1990      H1994   1.083       .  S
O1991      H1996   0.991       .  S
O1993      H1997   0.991       .  S
C1999      C2000   1.404       .  A
C1999      C2004   1.403       .  A
C1999      H2009   1.083       .  S
C2000      C2005   1.493       .  S
C2000      C2001   1.412       .  A
C2001      C2002   1.407       .  A
C2001      O2006   1.371       .  S
C2002      C2003   1.404       .  A
C2002      H2007   1.084       .  S
C2003      C2004   1.410       .  A
C2004      O2008   1.373       .  S
C2005      C2010   1.409       .  A
C2005      C2014   1.408       .  A
O2006      H2022   0.992       .  S
O2008      H2019   0.992       .  S
C2010      C2011   1.401       .  A
C2010      O2015   1.371       .  S
C2011      C2012   1.404       .  A
C2011      H2016   1.083       .  S
C2012      C2013   1.408       .  A
C2013      C2014   1.407       .  A
C2013      O2699   1.371       .  S
C2014      H2018   1.083       .  S
O2015      H2020   0.992       .  S
O2017      C2695   1.371   1_545  S
O2017      H2021   0.991       .  S
C2023      C2024   1.409       .  A
C2023      C2028   1.406       .  A
C2023      H2033   1.083       .  S
C2024      C2029   1.494       .  S
C2024      C2025   1.410       .  A
C2025      C2026   1.399       .  A
C2025      O2030   1.372       .  S
C2026      C2027   1.405       .  A
C2026      H2031   1.084       .  S
C2027      C2028   1.406       .  A
C2028      O2032   1.372       .  S
C2029      C2034   1.413       .  A
C2029      C2038   1.406       .  A
O2030      H2046   0.992       .  S
O2032      H2043   0.992       .  S
C2034      C2035   1.406       .  A
C2034      O2039   1.372       .  S
C2035      C2036   1.402       .  A
C2035      H2040   1.084       .  S
C2036      C2037   1.406       .  A
C2037      C2038   1.403       .  A
C2037      O2041   1.373       .  S
C2038      H2042   1.083       .  S
O2039      H2044   0.992       .  S
O2041      H2045   0.992       .  S
C2047      H2048   1.111       .  S
C2047      C2053   1.549       .  S
C2047      C2052   1.554       .  S
C2047      C2051   1.550       .  S
C2049      H2050   1.112       .  S
C2049      C2055   1.522       .  S
C2049      C2054   1.520       .  S
C2049      C2056   1.519       .  S
C2051      C2054   1.373       .  D
C2051      C2718   1.485       .  S
C2052      C2055   1.377       .  D
C2052      C2685   1.491       .  S
C2053      C2056   1.369       .  D
C2053      C2661   1.487       .  S
C2054      C2646   1.475       .  S
C2055      C2613   1.480       .  S
C2056      C2589   1.472       .  S
C2057      H2058   1.110       .  S
C2057      C2063   1.542       .  S
C2057      C2062   1.553       .  S
C2057      C2061   1.552       .  S
C2059      H2060   1.112       .  S
C2059      C2065   1.519       .  S
C2059      C2064   1.522       .  S
C2059      C2066   1.526       .  S
C2061      C2064   1.379       .  D
C2061      C2526   1.498       .  S
C2062      C2065   1.372       .  D
C2062      C2550   1.480       .  S
C2063      C2066   1.370       .  D
C2063      C2565   1.487       .  S
C2064      C2469   1.478       .  S
C2065      C2493   1.483       .  S
C2066      C2445   1.470       .  S
C2067      H2068   1.111       .  S
C2067      C2072   1.538       .  S
C2069      C2075   1.549       .  S
C2071      C2074   1.378       .  D
C2071      C2709   1.490       .  S
C2072      C2075   1.383       .  D
C2072      C2670   1.490       .  S
C2073      C2076   1.374       .  D
C2073      C2694   1.493       .  S
C2074      C2541   1.497       .  S
C2075      C2574   1.507       .  S
C2076      C2517   1.484       .  S
C2077      H2078   1.111       .  S
C2077      C2083   1.547       .  S
C2077      C2082   1.538       .  S
C2077      C2081   1.546       .  S
C2079      H2080   1.111       .  S
C2079      C2085   1.527       .  S
C2079      C2084   1.527       .  S
C2079      C2086   1.524       .  S
C2081      C2084   1.377       .  D
C2081      C2421   1.482       .  S
C2082      C2085   1.370       .  D
C2082      C2397   1.475       .  S
C2083      C2086   1.372       .  D
C2083      C2382   1.487       .  S
C2084      C2301   1.487       .  S
C2085      C2349   1.476       .  S
C2086      C2334   1.477       .  S
C2087      H2088   1.112       .  S
C2087      C2093   1.514       .  S
C2087      C2092   1.521       .  S
C2087      C2091   1.517       .  S
C2089      H2090   1.111       .  S
C2089      C2095   1.551       .  S
C2089      C2094   1.544       .  S
C2089      C2096   1.550       .  S
C2091      C2094   1.369       .  D
C2091      C2166   1.467       .  S
C2092      C2095   1.379       .  D
C2092      C2205   1.474       .  S
C2093      C2096   1.371       .  D
C2093      C2181   1.481       .  S
C2094      C2277   1.484       .  S
C2095      C2262   1.495       .  S
C2096      C2229   1.473       .  S
C2097      H2098   1.111       .  S
C2097      C2103   1.533       .  S
C2099      H2100   1.111       .  S
C2099      C2106   1.545       .  S
C2101      C2104   1.376       .  D
C2101      C2253   1.486       .  S
C2102      C2105   1.377       .  D
C2102      C2238   1.487       .  S
C2103      C2106   1.376       .  D
C2103      C2286   1.489       .  S
C2104      C2406   1.487       .  S
C2105      C2373   1.487       .  S
C2106      C2430   1.492       .  S
Zn2107     O2111   1.958       .  S
Zn2107     O2116   2.020       .  S
Zn2107     O2123   2.004       .  S
Zn2108     O2113   2.053       .  S
Zn2108     O2119   2.024       .  S
Zn2109     O2111   1.917   1_554  S
Zn2109     O2114   1.960       .  S
Zn2110     O2118   2.018       .  S
O2112      C2124   1.274   1_545  A
O2113      C2125   1.277   1_556  A
O2114      C2126   1.267       .  A
O2115      C2124   1.276       .  A
O2116      C2126   1.273   1_556  A
O2117      C2125   1.267       .  A
O2118      C2127   1.271   1_556  A
O2119      C2128   1.276       .  A
O2120      C2127   1.266       .  A
O2121      C2128   1.271       .  A
O2122      C2129   1.271       .  A
O2123      C2129   1.272       .  A
C2124      C2502   1.482       .  S
C2125      C2190   1.483       .  S
C2126      C2157   1.477       .  S
C2127      C2214   1.474       .  S
C2128      C2478   1.479       .  S
C2129      C2454   1.473       .  S
Zn2130     O2135   2.027       .  S
Zn2130     O2146   2.046       .  S
Zn2131     O2142   2.035       .  S
Zn2132     O2134   1.960       .  S
Zn2132     O2140   2.016       .  S
Zn2132     O2143   2.037       .  S
Zn2133     O2134   1.924       .  S
Zn2133     O2141   1.970       .  S
O2135      C2147   1.276       .  A
O2136      C2148   1.273       .  A
O2137      C2149   1.272       .  A
O2138      C2147   1.273       .  A
O2139      C2149   1.276       .  A
O2140      C2148   1.273       .  A
O2141      C2150   1.267       .  A
O2142      C2151   1.274       .  A
O2143      C2150   1.276       .  A
O2144      C2151   1.268       .  A
O2145      C2152   1.270       .  A
O2146      C2152   1.276       .  A
C2147      C2325   1.485       .  S
C2148      C2310   1.487       .  S
C2149      C2358   1.477       .  S
C2150      C2598   1.483       .  S
C2151      C2637   1.475       .  S
C2152      C2622   1.488       .  S
C2153      C2154   1.402       .  A
C2153      C2158   1.397       .  A
C2153      H2163   1.084       .  S
C2154      C2159   1.466       .  S
C2154      C2155   1.401       .  A
C2155      C2156   1.393       .  A
C2155      O2160   1.373       .  S
C2156      C2157   1.409       .  A
C2156      H2161   1.083       .  S
C2157      C2158   1.411       .  A
C2158      O2162   1.371       .  S
C2159      C2164   1.407       .  A
C2159      C2168   1.400       .  A
O2160      H2176   0.992       .  S
C2164      C2165   1.396       .  A
C2164      O2169   1.373       .  S
C2165      C2166   1.400       .  A
C2165      H2170   1.084       .  S
C2166      C2167   1.405       .  A
C2167      C2168   1.392       .  A
C2167      O2171   1.372       .  S
C2168      H2172   1.084       .  S
O2169      H2174   0.992       .  S
O2171      H2175   0.992       .  S
C2177      C2178   1.398       .  A
C2177      C2182   1.395       .  A
C2177      H2187   1.084       .  S
C2178      C2183   1.474       .  S
C2178      C2179   1.408       .  A
C2179      C2180   1.401       .  A
C2179      O2184   1.372       .  S
C2180      C2181   1.403       .  A
C2180      H2185   1.083       .  S
C2181      C2182   1.408       .  A
C2182      O2186   1.371       .  S
C2183      C2188   1.402       .  A
C2183      C2192   1.405       .  A
O2184      H2200   0.992       .  S
O2186      H2197   0.991       .  S
C2188      C2189   1.393       .  A
C2188      O2193   1.372       .  S
C2189      C2190   1.410       .  A
C2189      H2194   1.083       .  S
C2190      C2191   1.410       .  A
C2191      C2192   1.402       .  A
C2191      O2195   1.371       .  S
C2192      H2196   1.084       .  S
O2195      H2199   0.992       .  S
C2201      C2202   1.402       .  A
C2201      C2206   1.396       .  A
C2201      H2211   1.084       .  S
C2202      C2207   1.464       .  S
C2202      C2203   1.402       .  A
C2203      C2204   1.393       .  A
C2203      O2208   1.372       .  S
C2204      C2205   1.403       .  A
C2204      H2209   1.084       .  S
C2205      C2206   1.407       .  A
C2206      O2210   1.372       .  S
C2207      C2212   1.405       .  A
C2207      C2216   1.396       .  A
O2208      H2224   0.991       .  S
O2210      H2221   0.990       .  S
C2212      C2213   1.398       .  A
C2212      O2217   1.372       .  S
C2213      C2214   1.405       .  A
C2213      H2218   1.083       .  S
C2214      C2215   1.413       .  A
C2215      C2216   1.393       .  A
C2215      O2219   1.372       .  S
C2216      H2220   1.084       .  S
C2225      C2226   1.404       .  A
C2225      C2230   1.398       .  A
C2225      H2235   1.083       .  S
C2226      C2231   1.483       .  S
C2226      C2227   1.411       .  A
C2227      C2228   1.400       .  A
C2227      O2232   1.371       .  S
C2228      C2229   1.399       .  A
C2228      H2233   1.084       .  S
C2229      C2230   1.406       .  A
C2230      O2234   1.372       .  S
C2231      C2236   1.407       .  A
C2231      C2240   1.406       .  A
O2232      H2248   0.990       .  S
O2234      H2245   0.992       .  S
C2236      C2237   1.397       .  A
C2236      O2241   1.372       .  S
C2237      C2238   1.405       .  A
C2238      C2239   1.406       .  A
C2239      C2240   1.402       .  A
C2239      O2243   1.369       .  S
C2240      H2244   1.084       .  S
O2243      H2247   0.991       .  S
C2249      C2250   1.411       .  A
C2249      C2254   1.404       .  A
C2249      H2259   1.082       .  S
C2250      C2255   1.503       .  S
C2250      C2251   1.417       .  A
C2251      C2252   1.399       .  A
C2251      O2256   1.371       .  S
C2252      C2253   1.397       .  A
C2252      H2257   1.081       .  S
C2253      C2254   1.405       .  A
C2255      C2260   1.417       .  A
C2255      C2264   1.407       .  A
O2256      H2272   0.992       .  S
O2258      H2269   0.991       .  S
C2260      C2261   1.408       .  A
C2260      O2265   1.373       .  S
C2261      C2262   1.403       .  A
C2261      H2266   1.083       .  S
C2262      C2263   1.410       .  A
C2263      C2264   1.397       .  A
C2263      O2267   1.371       .  S
C2264      H2268   1.082       .  S
O2265      H2270   0.992       .  S
O2267      H2271   0.991       .  S
C2273      C2274   1.406       .  A
C2273      C2278   1.404       .  A
C2273      H2283   1.083       .  S
C2274      C2279   1.486       .  S
C2274      C2275   1.409       .  A
C2275      C2276   1.399       .  A
C2275      O2280   1.372       .  S
C2276      C2277   1.404       .  A
C2276      H2281   1.084       .  S
C2277      C2278   1.406       .  A
C2278      O2282   1.371       .  S
C2279      C2284   1.411       .  A
C2279      C2288   1.402       .  A
O2280      H2296   0.992       .  S
O2282      H2293   0.991       .  S
C2284      C2285   1.405       .  A
C2284      O2289   1.372       .  S
C2285      C2286   1.402       .  A
C2286      C2287   1.409       .  A
C2287      C2288   1.401       .  A
C2287      O2291   1.374       .  S
C2288      H2292   1.084       .  S
O2289      H2294   0.992       .  S
O2291      H2295   0.992       .  S
C2297      C2298   1.402       .  A
C2297      C2302   1.399       .  A
C2297      H2307   1.083       .  S
C2298      C2303   1.481       .  S
C2298      C2299   1.408       .  A
C2299      C2300   1.399       .  A
C2299      O2304   1.371       .  S
C2300      C2301   1.404       .  A
C2300      H2305   1.083       .  S
C2301      C2302   1.409       .  A
C2302      O2306   1.371       .  S
C2303      C2308   1.406       .  A
C2303      C2312   1.402       .  A
O2304      H2320   0.992       .  S
O2306      H2317   0.992       .  S
C2308      C2309   1.399       .  A
C2308      O2313   1.372       .  S
C2309      C2310   1.408       .  A
C2309      H2314   1.083       .  S
C2310      C2311   1.414       .  A
C2311      C2312   1.400       .  A
C2311      O2315   1.371       .  S
C2312      H2316   1.084       .  S
O2315      H2319   0.992       .  S
C2321      C2322   1.401       .  A
C2321      C2326   1.397       .  A
C2321      H2331   1.084       .  S
C2322      C2327   1.481       .  S
C2322      C2323   1.409       .  A
C2323      C2324   1.399       .  A
C2323      O2328   1.372       .  S
C2324      C2325   1.407       .  A
C2324      H2329   1.083       .  S
C2325      C2326   1.414       .  A
C2326      O2330   1.372       .  S
C2327      C2332   1.412       .  A
C2327      C2336   1.402       .  A
O2328      H2344   0.992       .  S
C2332      C2333   1.399       .  A
C2332      O2337   1.371       .  S
C2333      C2334   1.401       .  A
C2333      H2338   1.083       .  S
C2334      C2335   1.407       .  A
C2335      C2336   1.394       .  A
C2335      O2339   1.371       .  S
C2336      H2340   1.083       .  S
O2337      H2342   0.992       .  S
O2339      H2343   0.992       .  S
C2345      C2346   1.402       .  A
C2345      C2350   1.398       .  A
C2345      H2355   1.083       .  S
C2346      C2351   1.481       .  S
C2346      C2347   1.409       .  A
C2347      C2348   1.400       .  A
C2347      O2352   1.371       .  S
C2348      C2349   1.401       .  A
C2348      H2353   1.084       .  S
C2349      C2350   1.406       .  A
C2350      O2354   1.372       .  S
C2351      C2356   1.410       .  A
C2351      C2360   1.401       .  A
O2352      H2368   0.992       .  S
O2354      H2365   0.990       .  S
C2356      C2357   1.400       .  A
C2356      O2361   1.373       .  S
C2357      C2358   1.402       .  A
C2357      H2362   1.084       .  S
C2358      C2359   1.412       .  A
C2359      C2360   1.399       .  A
C2359      O2363   1.372   1_655  S
C2360      H2364   1.084       .  S
O2361      H2366   0.992       .  S
C2369      C2370   1.408       .  A
C2369      C2374   1.405       .  A
C2369      H2379   1.083       .  S
C2370      C2375   1.491       .  S
C2370      C2371   1.410       .  A
C2371      C2372   1.399       .  A
C2371      O2376   1.371       .  S
C2372      C2373   1.403       .  A
C2372      H2377   1.084       .  S
C2373      C2374   1.406       .  A
C2375      C2380   1.412       .  A
C2375      C2384   1.405       .  A
O2376      H2392   0.990       .  S
O2378      H2389   0.991       .  S
C2380      C2381   1.404       .  A
C2380      O2385   1.371       .  S
C2381      C2382   1.402       .  A
C2381      H2386   1.084       .  S
C2382      C2383   1.409       .  A
C2383      C2384   1.401       .  A
C2383      O2387   1.371       .  S
C2384      H2388   1.083       .  S
O2385      H2390   0.992       .  S
O2387      H2391   0.992       .  S
C2393      C2394   1.408       .  A
C2393      C2398   1.396       .  A
C2393      H2403   1.082       .  S
C2394      C2399   1.497       .  S
C2394      C2395   1.418       .  A
C2395      C2396   1.404       .  A
C2395      O2400   1.374       .  S
C2396      C2397   1.396       .  A
C2396      H2401   1.084       .  S
C2397      C2398   1.402       .  A
C2398      O2402   1.369       .  S
C2399      C2404   1.413       .  A
C2399      C2408   1.409       .  A
O2400      H2416   0.992       .  S
O2402      H2413   0.991       .  S
C2404      C2405   1.402       .  A
C2404      O2409   1.374       .  S
C2405      C2406   1.396       .  A
C2405      H2410   1.073   1_655  S
C2406      C2407   1.405       .  A
C2407      C2408   1.405       .  A
C2407      O2411   1.378       .  S
C2408      H2412   1.082       .  S
O2409      H2414   0.992   1_655  S
O2411      H2415   0.992       .  S
C2417      C2418   1.398       .  A
C2417      C2422   1.399       .  A
C2417      H2427   1.084       .  S
C2418      C2423   1.473       .  S
C2418      C2419   1.407       .  A
C2419      C2420   1.401       .  A
C2419      O2424   1.372       .  S
C2420      C2421   1.402       .  A
C2420      H2425   1.084       .  S
C2421      C2422   1.411       .  A
C2422      O2426   1.374       .  S
C2423      C2428   1.403       .  A
C2423      C2432   1.400       .  A
O2424      H2440   0.992       .  S
O2426      H2437   0.992       .  S
C2428      C2429   1.398       .  A
C2428      O2433   1.372       .  S
C2429      C2430   1.408       .  A
C2429      H2434   1.083       .  S
C2430      C2431   1.406       .  A
C2431      C2432   1.401       .  A
C2431      O2435   1.366       .  S
C2432      H2436   1.084       .  S
O2433      H2438   0.992       .  S
O2435      H2439   0.992       .  S
C2441      C2442   1.403       .  A
C2441      C2446   1.394       .  A
C2441      H2451   1.084       .  S
C2442      C2447   1.474       .  S
C2442      C2443   1.408       .  A
C2443      C2444   1.396       .  A
C2443      O2448   1.373       .  S
C2444      C2445   1.399       .  A
C2444      H2449   1.083       .  S
C2445      C2446   1.405       .  A
C2446      O2450   1.370       .  S
C2447      C2452   1.406       .  A
C2447      C2456   1.404       .  A
O2448      H2464   0.992       .  S
O2450      H2461   0.991       .  S
C2452      C2453   1.393       .  A
C2452      O2457   1.372       .  S
C2453      C2454   1.405       .  A
C2453      H2458   1.084       .  S
C2454      C2455   1.410       .  A
C2455      C2456   1.397       .  A
C2455      O2459   1.372       .  S
C2456      H2460   1.084       .  S
O2457      H2462   0.992       .  S
O2459      H2463   0.992       .  S
C2465      C2466   1.403       .  A
C2465      C2470   1.398       .  A
C2465      H2475   1.084       .  S
C2466      C2471   1.473       .  S
C2466      C2467   1.406       .  A
C2467      C2468   1.396       .  A
C2467      O2472   1.373       .  S
C2468      C2469   1.401       .  A
C2468      H2473   1.084       .  S
C2469      C2470   1.408       .  A
C2470      O2474   1.372       .  S
C2471      C2476   1.406       .  A
C2471      C2480   1.399       .  A
O2472      H2488   0.992       .  S
O2474      H2485   0.991       .  S
C2476      C2477   1.397       .  A
C2476      O2481   1.372       .  S
C2477      C2478   1.405       .  A
C2477      H2482   1.083       .  S
C2478      C2479   1.414       .  A
C2479      C2480   1.397       .  A
C2479      O2483   1.372       .  S
C2480      H2484   1.084       .  S
O2481      H2486   0.992       .  S
O2483      H2487   0.992       .  S
C2489      C2490   1.404       .  A
C2489      C2494   1.399       .  A
C2489      H2499   1.084       .  S
C2490      C2495   1.482       .  S
C2490      C2491   1.408       .  A
C2491      C2492   1.401       .  A
C2491      O2496   1.372       .  S
C2492      C2493   1.404       .  A
C2492      H2497   1.083       .  S
C2493      C2494   1.406       .  A
C2494      O2498   1.369       .  S
C2495      C2500   1.408       .  A
C2495      C2504   1.404       .  A
O2496      H2512   0.992       .  S
O2498      H2509   0.991       .  S
C2500      C2501   1.401       .  A
C2500      O2505   1.372       .  S
C2501      C2502   1.407       .  A
C2501      H2506   1.084   1_565  S
C2502      C2503   1.410       .  A
C2503      C2504   1.399       .  A
C2503      O2507   1.371       .  S
C2504      H2508   1.084       .  S
O2505      H2510   0.992       .  S
O2507      H2511   0.992       .  S
C2513      C2514   1.408       .  A
C2513      C2518   1.402       .  A
C2513      H2523   1.083       .  S
C2514      C2519   1.500       .  S
C2514      C2515   1.416       .  A
C2515      C2516   1.406       .  A
C2515      O2520   1.373       .  S
C2516      C2517   1.401       .  A
C2516      H2521   1.084       .  S
C2517      C2518   1.404       .  A
C2519      C2524   1.412       .  A
C2519      C2528   1.411       .  A
O2520      H2536   0.992       .  S
O2522      H2533   0.991       .  S
C2524      C2525   1.399       .  A
C2524      O2529   1.371       .  S
C2525      C2526   1.407       .  A
C2525      H2530   1.083       .  S
C2526      C2527   1.407       .  A
C2527      C2528   1.404       .  A
C2527      O2531   1.371       .  S
C2528      H2532   1.083       .  S
O2529      H2534   0.992       .  S
O2531      H2535   0.992       .  S
C2537      C2538   1.413       .  A
C2537      C2542   1.406       .  A
C2537      H2547   1.082       .  S
C2538      C2543   1.506       .  S
C2538      C2539   1.415       .  A
C2539      C2540   1.397       .  A
C2539      O2544   1.371       .  S
C2540      C2541   1.404       .  A
C2540      H2545   1.082       .  S
C2541      C2542   1.406       .  A
C2542      O2546   1.371   1_565  S
C2543      C2548   1.417       .  A
C2543      C2552   1.412       .  A
O2544      H2560   0.992       .  S
C2548      C2549   1.402       .  A
C2548      O2553   1.371       .  S
C2549      C2550   1.399       .  A
C2549      H2554   1.084       .  S
C2550      C2551   1.402       .  A
C2551      C2552   1.404       .  A
C2551      O2555   1.375       .  S
C2552      H2556   1.081       .  S
O2553      H2558   0.992       .  S
O2555      H2559   0.991       .  S
C2561      C2562   1.411       .  A
C2561      C2566   1.405       .  A
C2561      H2571   1.081       .  S
C2562      C2567   1.506       .  S
C2562      C2563   1.417       .  A
C2563      C2564   1.404       .  A
C2563      O2568   1.371       .  S
C2564      C2565   1.401       .  A
C2564      H2569   1.083       .  S
C2565      C2566   1.404       .  A
C2566      O2570   1.374       .  S
C2567      C2572   1.412       .  A
C2567      C2576   1.412       .  A
O2568      H2584   0.992       .  S
O2570      H2581   0.992       .  S
C2572      C2573   1.401       .  A
C2572      O2577   1.373       .  S
C2573      C2574   1.407       .  A
C2573      H2578   1.081       .  S
C2574      C2575   1.408       .  A
C2575      C2576   1.409       .  A
C2576      H2580   1.082       .  S
O2577      H2582   0.992       .  S
O2579      H2583   0.990       .  S
C2585      C2586   1.404       .  A
C2585      C2590   1.398       .  A
C2585      H2595   1.084       .  S
C2586      C2591   1.478       .  S
C2586      C2587   1.408       .  A
C2587      C2588   1.399       .  A
C2587      O2592   1.373       .  S
C2588      C2589   1.400       .  A
C2588      H2593   1.084       .  S
C2589      C2590   1.404       .  A
C2590      O2594   1.372       .  S
C2591      C2596   1.409       .  A
C2591      C2600   1.399       .  A
O2592      H2608   0.992       .  S
O2594      H2605   0.992       .  S
C2596      C2597   1.399       .  A
C2596      O2601   1.371       .  S
C2597      C2598   1.405       .  A
C2597      H2602   1.083       .  S
C2598      C2599   1.417       .  A
C2599      C2600   1.396       .  A
C2599      O2603   1.372       .  S
C2600      H2604   1.084       .  S
O2601      H2606   0.992       .  S
O2603      H2607   0.992       .  S
C2609      C2610   1.400       .  A
C2609      C2614   1.397       .  A
C2609      H2619   1.084       .  S
C2610      C2615   1.476       .  S
C2610      C2611   1.408       .  A
C2611      C2612   1.401       .  A
C2611      O2616   1.372       .  S
C2612      C2613   1.402       .  A
C2612      H2617   1.084       .  S
C2613      C2614   1.408       .  A
C2614      O2618   1.372       .  S
C2615      C2620   1.402       .  A
C2615      C2624   1.403       .  A
O2616      H2632   0.992       .  S
O2618      H2629   0.992       .  S
C2620      C2621   1.395       .  A
C2620      O2625   1.372       .  S
C2621      C2622   1.410       .  A
C2621      H2626   1.083       .  S
C2622      C2623   1.413       .  A
C2623      C2624   1.403       .  A
C2624      H2628   1.084       .  S
O2625      H2630   0.992       .  S
O2627      H2631   0.992       .  S
C2633      C2634   1.396       .  A
C2633      C2638   1.394       .  A
C2633      H2643   1.084       .  S
C2634      C2639   1.469       .  S
C2634      C2635   1.407       .  A
C2635      C2636   1.402       .  A
C2635      O2640   1.371       .  S
C2636      C2637   1.404       .  A
C2636      H2641   1.083       .  S
C2637      C2638   1.413       .  A
C2638      O2642   1.372       .  S
C2639      C2644   1.403       .  A
C2639      C2648   1.402       .  A
O2640      H2656   0.992       .  S
O2642      H2653   0.992   1_565  S
C2644      C2645   1.396       .  A
C2644      O2649   1.372       .  S
C2645      C2646   1.404       .  A
C2645      H2650   1.084       .  S
C2646      C2647   1.405       .  A
C2647      C2648   1.401       .  A
C2647      O2651   1.372       .  S
C2648      H2652   1.084       .  S
O2649      H2654   0.992       .  S
O2651      H2655   0.992       .  S
C2657      C2658   1.407       .  A
C2657      C2662   1.406       .  A
C2657      H2667   1.083       .  S
C2658      C2663   1.488       .  S
C2658      C2659   1.408       .  A
C2659      C2660   1.400       .  A
C2659      O2664   1.372       .  S
C2660      C2661   1.405       .  A
C2660      H2665   1.084       .  S
C2661      C2662   1.406       .  A
C2662      O2666   1.371       .  S
C2663      C2668   1.411       .  A
C2663      C2672   1.403       .  A
O2664      H2680   0.992       .  S
O2666      H2677   0.991       .  S
C2668      C2669   1.405       .  A
C2668      O2673   1.371       .  S
C2669      C2670   1.403       .  A
C2669      H2674   1.084       .  S
C2670      C2671   1.410       .  A
C2671      C2672   1.401       .  A
C2671      O2675   1.372       .  S
C2672      H2676   1.083       .  S
O2673      H2678   0.991       .  S
O2675      H2679   0.991       .  S
C2681      C2682   1.404       .  A
C2681      C2686   1.403       .  A
C2681      H2691   1.083       .  S
C2682      C2687   1.493       .  S
C2682      C2683   1.412       .  A
C2683      C2684   1.407       .  A
C2683      O2688   1.371       .  S
C2684      C2685   1.404       .  A
C2684      H2689   1.084       .  S
C2685      C2686   1.409       .  A
C2686      O2690   1.373       .  S
C2687      C2692   1.409       .  A
C2687      C2696   1.408       .  A
O2688      H2704   0.992       .  S
O2690      H2701   0.992       .  S
C2692      C2693   1.401       .  A
C2692      O2697   1.371       .  S
C2693      C2694   1.404       .  A
C2693      H2698   1.082       .  S
C2694      C2695   1.407       .  A
C2695      C2696   1.407       .  A
C2696      H2700   1.083       .  S
O2697      H2702   0.992       .  S
O2699      H2703   0.991       .  S
C2705      C2706   1.409       .  A
C2705      C2710   1.406       .  A
C2705      H2715   1.083       .  S
C2706      C2711   1.493       .  S
C2706      C2707   1.410       .  A
C2707      C2708   1.400       .  A
C2707      O2712   1.372       .  S
C2708      C2709   1.405       .  A
C2708      H2713   1.084   1_565  S
C2709      C2710   1.407       .  A
C2710      O2714   1.372       .  S
C2711      C2716   1.413       .  A
C2711      C2720   1.406       .  A
O2712      H2728   0.992       .  S
O2714      H2725   0.992       .  S
C2716      C2717   1.406       .  A
C2716      O2721   1.372       .  S
C2717      C2718   1.402       .  A
C2717      H2722   1.084       .  S
C2718      C2719   1.406       .  A
C2719      C2720   1.403       .  A
C2719      O2723   1.373       .  S
C2720      H2724   1.083       .  S
O2721      H2726   0.992       .  S
O2723      H2727   0.992       .  S
