geometry optimzed in LAMMPS
_audit_creation_date              2020-11-30 
_audit_creation_method            'lammps2cif' 
_symmetry_space_group_name_H-M    'P1' 
_symmetry_Int_Tables_number       1 
_symmetry_cell_setting            triclinic 
loop_ 
_symmetry_equiv_pos_as_xyz 
  x,y,z 
_cell_length_a                    78.56969042 
_cell_length_b                    78.67426592521326 
_cell_length_c                    24.819181249777767 
_cell_angle_alpha                 90.0026721495023 
_cell_angle_beta                  90.05556002607626 
_cell_angle_gamma                 90.18252839919253 
loop_ 
_atom_site_label 
_atom_site_type_symbol 
_atom_site_fract_x 
_atom_site_fract_y 
_atom_site_fract_z 
_atom_site_charge 
C1          C  0.88960496  0.73389858  0.94843215     0.86200
C2          C  0.87513595  0.74706853  0.95171544    -0.54100
C3          C  0.87581701  0.75752990  0.99596140     0.09100
C4          C  0.89127719  0.75368134  0.03335477     0.20000
C5          C  0.90588822  0.74465789  0.95166677    -0.54800
C6          C  0.90699771  0.75493133  0.99577594     0.09200
C7          C  0.88865276  0.72440686  0.00216407    -0.54300
C8          C  0.88954839  0.73449429  0.04674174     0.09800
H9          H  0.86542564  0.74859489  0.92123814     0.14300
H10         H  0.89202300  0.76198481  0.06945578     0.00000
H11         H  0.91563124  0.74440040  0.92063490     0.14600
H12         H  0.88755726  0.71065560  0.00473315     0.14400
O13         O  0.91432507  0.58528465  0.54594869    -0.74700
O14         O  0.91249148  0.62155361  0.44118612    -0.74800
O15         O  0.91265132  0.61987963  0.55075952    -0.74800
O16         O  0.91421669  0.58686347  0.43656946    -0.74900
O17         O  0.88588586  0.58566823  0.43620334    -0.74800
O18         O  0.88434941  0.61819008  0.55095557    -0.74800
O19         O  0.88418906  0.62013014  0.44183121    -0.74800
O20         O  0.88602516  0.58374376  0.54519458    -0.74800
Ni21       Ni  0.91443824  0.60345855  0.49357034     1.25400
Ni22       Ni  0.88413845  0.60188980  0.49352978     1.25400
C23         C  0.90043603  0.57843753  0.56266413     0.87400
C24         C  0.89799401  0.62692894  0.42443741     0.87400
C25         C  0.89820098  0.62448996  0.56973583     0.87400
C26         C  0.90027672  0.58068222  0.41790611     0.87600
C27         C  0.85579328  0.15489964  0.04192135     0.86200
C28         C  0.84377896  0.13943827  0.04290276    -0.54100
C29         C  0.84658192  0.12775191  0.00277253     0.09100
C30         C  0.86183131  0.13281750  0.96536755     0.20000
C31         C  0.87366034  0.14723469  0.04379810    -0.54800
C32         C  0.87711875  0.13600932  0.00379264     0.09200
C33         C  0.85384659  0.16206745  0.98488461    -0.54300
C34         C  0.85722677  0.15078253  0.94459422     0.09800
H35         H  0.83383858  0.13768832  0.07248515     0.14300
H36         H  0.86451025  0.12355852  0.93272373     0.00000
H37         H  0.88302285  0.15072987  0.07415127     0.14600
H38         H  0.85099295  0.17535085  0.97708196     0.14400
O39         O  0.89406207  0.25752753  0.54828991    -0.74700
O40         O  0.89992312  0.29415306  0.44737407    -0.74800
O41         O  0.90170762  0.29120501  0.55692487    -0.74800
O42         O  0.89209973  0.26072063  0.43933319    -0.74900
O43         O  0.86457928  0.26715987  0.44577031    -0.74800
O44         O  0.87402415  0.29700684  0.56289564    -0.74800
O45         O  0.87239947  0.30053527  0.45483642    -0.74800
O46         O  0.86642353  0.26344154  0.55413711    -0.74800
Ni47       Ni  0.89795340  0.27568814  0.49785187     1.25400
Ni48       Ni  0.86840323  0.28223422  0.50471263     1.25400
C49         C  0.87925926  0.25431211  0.56758846     0.87400
C50         C  0.88710248  0.30330053  0.43412274     0.87400
C51         C  0.88934282  0.29924718  0.57897123     0.87400
C52         C  0.87668919  0.25907237  0.42290857     0.87600
O53         O  0.88486433  0.45662028  0.93863728    -0.74700
O54         O  0.88295086  0.42314113  0.05140960    -0.74800
O55         O  0.88385156  0.45766617  0.04819702    -0.74800
O56         O  0.88418077  0.42195155  0.94214175    -0.74900
O57         O  0.91251380  0.42155616  0.94544389    -0.74800
O58         O  0.91217212  0.45673709  0.05162140    -0.74800
O59         O  0.91128470  0.42228706  0.05377111    -0.74800
O60         O  0.91317264  0.45616869  0.94180282    -0.74800
Ni61       Ni  0.88294821  0.43988573  0.99490604     1.25400
Ni62       Ni  0.91327332  0.43922473  0.99817716     1.25400
C63         C  0.89931797  0.46198954  0.92156608     0.87400
C64         C  0.89677941  0.41705260  0.07085633     0.87400
C65         C  0.89802340  0.46288528  0.06803416     0.87400
C66         C  0.89846091  0.41563377  0.92717320     0.87600
C67         C  0.73060251  0.87672405  0.05899903     0.86200
C68         C  0.74581431  0.86446405  0.05665744    -0.54100
C69         C  0.75655633  0.86721080  0.01398445     0.09100
C70         C  0.75087160  0.88221887  0.97718586     0.20000
C71         C  0.73859091  0.89445549  0.05827302    -0.54800
C72         C  0.74890879  0.89757366  0.01566853     0.09200
C73         C  0.72201039  0.87466336  0.00395658    -0.54300
C74         C  0.73236749  0.87770262  0.96085661     0.09800
H75         H  0.74803679  0.85431923  0.08527660     0.14300
H76         H  0.75947386  0.88460994  0.94250785     0.00000
H77         H  0.73599138  0.90396697  0.08894576     0.14600
H78         H  0.70852861  0.87186081  0.99964292     0.14400
O79         O  0.62460703  0.91365102  0.56576989    -0.74700
O80         O  0.59021471  0.91974924  0.45714426    -0.74800
O81         O  0.59066041  0.92049140  0.56723888    -0.74800
O82         O  0.62396453  0.91277837  0.45672289    -0.74900
O83         O  0.61785530  0.88510429  0.45898803    -0.74800
O84         O  0.58521386  0.89267996  0.56946219    -0.74800
O85         O  0.58413092  0.89207505  0.46078669    -0.74800
O86         O  0.61904151  0.88587850  0.56760987    -0.74800
Ni87       Ni  0.60753313  0.91768412  0.51172310     1.25400
Ni88       Ni  0.60134686  0.88797808  0.51434633     1.25400
C89         C  0.62775330  0.89871672  0.58389560     0.87400
C90         C  0.58158277  0.90688148  0.44076472     0.87400
C91         C  0.58242578  0.90775985  0.58648381     0.87400
C92         C  0.62640329  0.89757709  0.43981767     0.87600
C93         C  0.14779123  0.90813701  0.95374938     0.86200
C94         C  0.13458486  0.89372553  0.95963577    -0.54100
C95         C  0.12426917  0.89493676  0.00407549     0.09100
C96         C  0.12835499  0.91097319  0.03922633     0.20000
C97         C  0.13716613  0.92440015  0.95516970    -0.54800
C98         C  0.12704355  0.92620102  0.99931512     0.09200
C99         C  0.15755006  0.90794794  0.00709139    -0.54300
C100        C  0.14773278  0.90945742  0.05220604     0.09800
H101        H  0.13300244  0.88353633  0.93084168     0.14300
H102        H  0.12014906  0.91220319  0.07539349     0.00000
H103        H  0.13741587  0.93367438  0.92271874     0.14600
H104        H  0.17133368  0.90696136  0.00887993     0.14400
O105        O  0.29648830  0.93369919  0.56080828    -0.74700
O106        O  0.26211797  0.93317003  0.44916865    -0.74800
O107        O  0.26168416  0.93244190  0.55853059    -0.74800
O108        O  0.29706701  0.93433280  0.45146265    -0.74900
O109        O  0.29809022  0.90604609  0.45084739    -0.74800
O110        O  0.26256367  0.90415956  0.55587088    -0.74800
O111        O  0.26326462  0.90491741  0.44698797    -0.74800
O112        O  0.29709811  0.90540711  0.55991737    -0.74800
Ni113      Ni  0.27931294  0.93442661  0.50497617     1.25400
Ni114      Ni  0.28029490  0.90416251  0.50322919     1.25400
C115        C  0.30249218  0.91963096  0.57882818     0.87400
C116        C  0.25672256  0.91891887  0.43034869     0.87400
C117        C  0.25617020  0.91791287  0.57444442     0.87400
C118        C  0.30370122  0.92044762  0.43443303     0.87600
O119        O  0.42466022  0.90278606  0.95587093    -0.74700
O120        O  0.46060896  0.90143150  0.06152051    -0.74800
O121        O  0.42596798  0.90268753  0.06543690    -0.74800
O122        O  0.45941324  0.90170626  0.95236030    -0.74900
O123        O  0.46040769  0.93001260  0.95319406    -0.74800
O124        O  0.42732589  0.93095770  0.06570333    -0.74800
O125        O  0.46188374  0.92971642  0.06136315    -0.74800
O126        O  0.42587508  0.93105122  0.95601177    -0.74800
Ni127      Ni  0.44259712  0.90113348  0.00874367     1.25400
Ni128      Ni  0.44384803  0.93141469  0.00908231     1.25400
C129        C  0.41937202  0.91716518  0.93823529     0.87400
C130        C  0.46737197  0.91533124  0.07828670     0.87400
C131        C  0.42122373  0.91707301  0.08447901     0.87400
C132        C  0.46570944  0.91575785  0.93509310     0.87600
C133        C  0.71449895  0.99115217  0.95097322     0.86200
C134        C  0.72721317  0.00608740  0.95349335    -0.54100
C135        C  0.73795619  0.00583845  0.99723705     0.09100
C136        C  0.73469433  0.99025941  0.03496211     0.20000
C137        C  0.72568212  0.97533736  0.95380116    -0.54800
C138        C  0.73620535  0.97462675  0.99718827     0.09200
C139        C  0.70519291  0.99181344  0.00493318    -0.54300
C140        C  0.71543778  0.99119420  0.04932566     0.09800
H141        H  0.72820425  0.01577590  0.92276119     0.14300
H142        H  0.74323087  0.98976793  0.07058271     0.00000
H143        H  0.72555805  0.96560514  0.92270009     0.14600
H144        H  0.69139030  0.99200282  0.00756565     0.14400
O145        O  0.56801493  0.95707380  0.54943759    -0.74700
O146        O  0.60419259  0.95849712  0.44415017    -0.74800
O147        O  0.60267783  0.95867092  0.55362397    -0.74800
O148        O  0.56931465  0.95696054  0.44020699    -0.74900
O149        O  0.56832420  0.98526462  0.43984240    -0.74800
O150        O  0.60136011  0.98695024  0.55226298    -0.74800
O151        O  0.60286695  0.98675946  0.44366480    -0.74800
O152        O  0.56701788  0.98536615  0.54892270    -0.74800
Ni153      Ni  0.58609794  0.95676668  0.49677551     1.25400
Ni154      Ni  0.58484183  0.98704653  0.49606663     1.25400
C155        C  0.56158230  0.97103329  0.56670723     0.87400
C156        C  0.60969304  0.97292178  0.42707650     0.87400
C157        C  0.60752730  0.97319785  0.57153062     0.87400
C158        C  0.56313179  0.97089658  0.42193461     0.87600
C159        C  0.13601063  0.02673546  0.04400237     0.86200
C160        C  0.12023374  0.03828014  0.04424926    -0.54100
C161        C  0.10905327  0.03559831  0.00241626     0.09100
C162        C  0.11489082  0.02085004  0.96423281     0.20000
C163        C  0.12883914  0.00871018  0.04295949    -0.54800
C164        C  0.11798515  0.00529968  0.00174968     0.09200
C165        C  0.14377324  0.02949171  0.98815798    -0.54300
C166        C  0.13304201  0.02623718  0.94600447     0.09800
H167        H  0.11805551  0.04798369  0.07429872     0.14300
H168        H  0.10600419  0.01824962  0.93040336     0.00000
H169        H  0.13210329  0.99928958  0.07328407     0.14600
H170        H  0.15706766  0.03288554  0.98256083     0.14400
O171        O  0.24105536  0.99122055  0.55203081    -0.74700
O172        O  0.27725023  0.98522039  0.44922610    -0.74800
O173        O  0.27483750  0.98381688  0.55876914    -0.74800
O174        O  0.24355215  0.99256903  0.44309883    -0.74900
O175        O  0.24968501  0.02019306  0.44795255    -0.74800
O176        O  0.28077004  0.01148501  0.56340515    -0.74800
O177        O  0.28334008  0.01283931  0.45450612    -0.74800
O178        O  0.24712298  0.01885140  0.55672550    -0.74800
Ni179      Ni  0.25898114  0.98721203  0.50065680     1.25400
Ni180      Ni  0.26545515  0.01679931  0.50584262     1.25400
C181        C  0.23799381  0.00607844  0.57100180     0.87400
C182        C  0.28620497  0.99808531  0.43453618     0.87400
C183        C  0.28296667  0.99625443  0.58026516     0.87400
C184        C  0.24140288  0.00785641  0.42657905     0.87600
O185        O  0.40730123  0.99616449  0.05266330    -0.74700
O186        O  0.44164070  0.99196349  0.94313036    -0.74800
O187        O  0.40705090  0.99502520  0.94324039    -0.74800
O188        O  0.44178912  0.99284538  0.05253249    -0.74900
O189        O  0.43889210  0.96468446  0.05455548    -0.74800
O190        O  0.40416764  0.96686895  0.94713876    -0.74800
O191        O  0.43858003  0.96382991  0.94477327    -0.74800
O192        O  0.40458097  0.96799482  0.05573229    -0.74800
Ni193      Ni  0.42455316  0.99501263  0.99774982     1.25400
Ni194      Ni  0.42150985  0.96486104  0.00059415     1.25400
C195        C  0.40020617  0.98281312  0.07221598     0.87400
C196        C  0.44573637  0.97720103  0.92563211     0.87400
C197        C  0.39966252  0.98126120  0.92795825     0.87400
C198        C  0.44595300  0.97830803  0.07181717     0.87600
C199        C  0.00572116  0.74539424  0.05267417     0.86200
C200        C  0.01791842  0.76074882  0.05507061    -0.54100
C201        C  0.01563145  0.77254733  0.01492526     0.09100
C202        C  0.00077179  0.76764162  0.97570931     0.20000
C203        C  0.98796143  0.75327701  0.05266928    -0.54800
C204        C  0.98510083  0.76466553  0.01254956     0.09200
C205        C  0.00812269  0.73824534  0.99590324    -0.54300
C206        C  0.00534101  0.74958658  0.95531946     0.09800
H207        H  0.02752020  0.76244934  0.08582218     0.14300
H208        H  0.99855146  0.77697061  0.94290761     0.00000
H209        H  0.97829672  0.74994153  0.08218679     0.14600
H210        H  0.01088912  0.72492732  0.98836550     0.14400
O211        O  0.96809463  0.60453895  0.45846560    -0.74700
O212        O  0.97339244  0.64069864  0.56122642    -0.74800
O213        O  0.97490910  0.63819026  0.45240582    -0.74800
O214        O  0.96673839  0.60676887  0.56769857    -0.74900
O215        O  0.99455868  0.60156027  0.57234964    -0.74800
O216        O  0.00268672  0.63277543  0.45746542    -0.74800
O217        O  0.00118661  0.63547545  0.56628227    -0.74800
O218        O  0.99584348  0.59904116  0.46342186    -0.74800
Ni219      Ni  0.96980058  0.62273304  0.50990568     1.25400
Ni220      Ni  0.99955008  0.61702341  0.51516506     1.25400
C221        C  0.98107314  0.59591702  0.44342378     0.87400
C222        C  0.98815841  0.64425311  0.58028000     0.87400
C223        C  0.99016318  0.64054449  0.43562806     0.87400
C224        C  0.97934258  0.59883390  0.58868899     0.87600
C225        C  0.97407768  0.16903363  0.96337933     0.86200
C226        C  0.98825405  0.15568079  0.96381255    -0.54100
C227        C  0.98731421  0.14397677  0.00470824     0.09100
C228        C  0.97160811  0.14696679  0.04225249     0.20000
C229        C  0.95750020  0.15875946  0.96323965    -0.54800
C230        C  0.95603528  0.14720056  0.00376825     0.09200
C231        C  0.97478468  0.17703496  0.01979993    -0.54300
C232        C  0.97336623  0.16570365  0.06117590     0.09800
H233        H  0.99802139  0.15536550  0.93293230     0.14300
H234        H  0.97047142  0.13767062  0.07571703     0.00000
H235        H  0.94783842  0.16018977  0.93221184     0.14600
H236        H  0.97553432  0.19050564  0.02786421     0.14400
O237        O  0.94432808  0.27787560  0.45258066    -0.74700
O238        O  0.94426781  0.31344768  0.55926842    -0.74800
O239        O  0.94284007  0.31261804  0.44998306    -0.74800
O240        O  0.94595585  0.27878707  0.56171744    -0.74900
O241        O  0.97424413  0.28013155  0.55685054    -0.74800
O242        O  0.97115436  0.31385332  0.44691547    -0.74800
O243        O  0.97257435  0.31462207  0.55604272    -0.74800
O244        O  0.97260437  0.27937003  0.44841726    -0.74800
Ni245      Ni  0.94332414  0.29564364  0.50601959     1.25400
Ni246      Ni  0.97361573  0.29706506  0.50191083     1.25400
C247        C  0.95851067  0.27255860  0.43339114     0.87400
C248        C  0.95839411  0.31996858  0.57520803     0.87400
C249        C  0.95659251  0.31890127  0.43029142     0.87400
C250        C  0.96069740  0.27370015  0.57702446     0.87600
O251        O  0.97911969  0.47499000  0.06211881    -0.74700
O252        O  0.97621794  0.44105764  0.95110684    -0.74800
O253        O  0.97854791  0.47545196  0.95258083    -0.74800
O254        O  0.97651366  0.44051644  0.06065608    -0.74900
O255        O  0.94824621  0.44263456  0.06138127    -0.74800
O256        O  0.95027061  0.47753743  0.95459053    -0.74800
O257        O  0.94796563  0.44316477  0.95133780    -0.74800
O258        O  0.95086093  0.47706262  0.06348123    -0.74800
Ni259      Ni  0.97860229  0.45792788  0.00660181     1.25400
Ni260      Ni  0.94833775  0.46012417  0.00776142     1.25400
C261        C  0.96553280  0.48173081  0.08101563     0.87400
C262        C  0.96166252  0.43662657  0.93231945     0.87400
C263        C  0.96469767  0.48229274  0.93597856     0.87400
C264        C  0.96196967  0.43589160  0.07909081     0.87600
O265        O  0.10922234  0.94688702  0.95763950    -0.74700
O266        O  0.07094225  0.97672902  0.95705095    -0.74800
O267        O  0.10441252  0.98197065  0.95495564    -0.74800
O268        O  0.07518967  0.94253983  0.95993591    -0.74900
O269        O  0.07488692  0.94393401  0.04961303    -0.74800
O270        O  0.10614451  0.98102909  0.04453494    -0.74800
O271        O  0.07219643  0.97827590  0.04662714    -0.74800
O272        O  0.10890604  0.94581748  0.04733317    -0.74800
Ni273      Ni  0.09005046  0.96194993  0.95415235     1.25400
Ni274      Ni  0.09066558  0.96230148  0.05021552     1.25400
C275        C  0.11458353  0.94043659  0.00204357     0.87400
C276        C  0.06560406  0.98288296  0.00161527     0.87400
C277        C  0.10919941  0.98856615  0.99971804     0.87400
C278        C  0.06998424  0.93697731  0.00568833     0.87600
O279        O  0.90165858  0.12386035  0.04461591    -0.74700
O280        O  0.93983557  0.09394187  0.04058063    -0.74800
O281        O  0.93683391  0.12770886  0.04740880    -0.74800
O282        O  0.90557386  0.09018652  0.03759202    -0.74900
O283        O  0.90708635  0.09122937  0.94794340    -0.74800
O284        O  0.93546441  0.13040182  0.95808562    -0.74800
O285        O  0.94108238  0.09680450  0.95131731    -0.74800
O286        O  0.90067729  0.12427205  0.95484133    -0.74800
Ni287      Ni  0.92094345  0.10896664  0.04583093     1.25400
Ni288      Ni  0.92113449  0.11087001  0.94986786     1.25400
C289        C  0.89400560  0.12772700  0.00061773     0.87400
C290        C  0.94689729  0.09058407  0.99539810     0.87400
C291        C  0.94192191  0.13467236  0.00360883     0.87400
C292        C  0.90113257  0.08463687  0.99105844     0.87600
O293        O  0.96037584  0.77650444  0.05250001    -0.74700
O294        O  0.92283341  0.80710617  0.05129616    -0.74800
O295        O  0.92532649  0.77318254  0.04774724    -0.74800
O296        O  0.95710109  0.81041104  0.05594008    -0.74900
O297        O  0.95733071  0.81214861  0.96630378    -0.74800
O298        O  0.92807400  0.77330369  0.95836040    -0.74800
O299        O  0.92324211  0.80716507  0.96148194    -0.74800
O300        O  0.96290867  0.77871748  0.96329790    -0.74800
Ni301      Ni  0.94138484  0.79165988  0.05507481     1.25400
Ni302      Ni  0.94289651  0.79275733  0.95911272     1.25400
C303        C  0.96861435  0.77363485  0.00886476     0.87400
C304        C  0.91674040  0.81208387  0.00619617     0.87400
C305        C  0.92095816  0.76758573  0.00124529     0.87400
C306        C  0.96239174  0.81743357  0.01240074     0.87600
O307        O  0.76110770  0.92278831  0.05207460    -0.74700
O308        O  0.78979098  0.96188068  0.04023150    -0.74800
O309        O  0.75612184  0.95750333  0.04608865    -0.74800
O310        O  0.79480611  0.92792984  0.04723665    -0.74900
O311        O  0.79425780  0.92659851  0.95751537    -0.74800
O312        O  0.75431657  0.95408760  0.95706360    -0.74800
O313        O  0.78777058  0.96029234  0.95073648    -0.74800
O314        O  0.76109753  0.91977032  0.96269971    -0.74800
Ni315      Ni  0.77541330  0.94256380  0.04968473     1.25400
Ni316      Ni  0.77422554  0.94014306  0.95381901     1.25400
C317        C  0.75738251  0.91421330  0.00963003     0.87400
C318        C  0.79328352  0.96766520  0.99330897     0.87400
C319        C  0.74935598  0.96126262  0.00075463     0.87400
C320        C  0.80082215  0.92231375  0.00272095     0.87600
C321        C  0.90218463  0.82384569  0.00621958    -0.03700
C322        C  0.89711719  0.83171677  0.05447824    -0.09400
C323        C  0.88393865  0.84352850  0.05447076    -0.17100
C324        C  0.87560134  0.84750458  0.00639812     0.25100
C325        C  0.88022108  0.83943422  0.95838995    -0.18800
C326        C  0.89348569  0.82765932  0.95822763    -0.07700
C327        C  0.86276443  0.86035956  0.00615910    -0.14100
C328        C  0.85240256  0.87154062  0.00610994    -0.13900
C329        C  0.84012254  0.88492489  0.00525576     0.25000
C330        C  0.83309710  0.89008201  0.95621154    -0.19300
C331        C  0.82064147  0.90265150  0.95525144    -0.07700
C332        C  0.81505878  0.91017451  0.00347750    -0.03800
C333        C  0.82244178  0.90512431  0.05255150    -0.09100
C334        C  0.83492438  0.89254351  0.05337776    -0.16700
H335        H  0.90356220  0.82902521  0.09209590     0.11400
H336        H  0.88041622  0.84973376  0.09179018     0.10700
H337        H  0.87376062  0.84244114  0.92101600     0.10600
H338        H  0.89702726  0.82168113  0.92059168     0.11100
H339        H  0.83706044  0.88420342  0.91880788     0.11200
H340        H  0.81513466  0.90619579  0.91686875     0.11200
H341        H  0.81836429  0.91065297  0.09033880     0.11300
H342        H  0.84033749  0.88859455  0.09152535     0.10100
C343        C  0.88842961  0.07096117  0.98655624    -0.03700
C344        C  0.88023444  0.06467819  0.03273716    -0.09400
C345        C  0.86725983  0.05266916  0.02783231    -0.17100
C346        C  0.86240183  0.04685099  0.97686674     0.25100
C347        C  0.87057002  0.05286506  0.93071202    -0.18800
C348        C  0.88354210  0.06487910  0.93547838    -0.07700
C349        C  0.84886996  0.03482013  0.97229448    -0.14100
C350        C  0.83781816  0.02430855  0.97238473    -0.13900
C351        C  0.82566514  0.01093237  0.97775499     0.25000
C352        C  0.81682549  0.00490859  0.93275152    -0.19300
C353        C  0.80598417  0.99093704  0.93790911    -0.07700
C354        C  0.80393747  0.98294963  0.98820116    -0.03800
C355        C  0.81250924  0.98945417  0.03343836    -0.09100
C356        C  0.82339565  0.00333428  0.02810574    -0.16700
H357        H  0.88361897  0.06925155  0.07249192     0.11400
H358        H  0.86089461  0.04805115  0.06369549     0.10700
H359        H  0.86680653  0.04840415  0.89113455     0.10600
H360        H  0.88955153  0.06957600  0.89913834     0.11100
H361        H  0.81856582  0.01077918  0.89364354     0.11200
H362        H  0.79939602  0.98626776  0.90250901     0.11200
H363        H  0.81111381  0.98360010  0.07267999     0.11300
H364        H  0.83023956  0.00798664  0.06307916     0.10100
C365        C  0.96185293  0.07926969  0.99459260    -0.03700
C366        C  0.97144419  0.07704014  0.94731324    -0.09400
C367        C  0.98531694  0.06594045  0.94684664    -0.17100
C368        C  0.98967578  0.05695332  0.99352097     0.25100
C369        C  0.98033508  0.05926674  0.04081918    -0.18800
C370        C  0.96656498  0.07039818  0.04147746    -0.07700
C371        C  0.00347007  0.04504780  0.99306421    -0.14100
C372        C  0.01450736  0.03449187  0.99444721    -0.13900
C373        C  0.02720768  0.02143819  0.99658090     0.25000
C374        C  0.03394595  0.01628936  0.04616516    -0.19300
C375        C  0.04629173  0.00354296  0.04812038    -0.07700
C376        C  0.05201683  0.99582546  0.00038930    -0.03800
C377        C  0.04513688  0.00112272  0.95077206    -0.09100
C378        C  0.03279781  0.01382096  0.94895206    -0.16700
H379        H  0.96819938  0.08380859  0.91074821     0.11400
H380        H  0.99253316  0.06425879  0.91007226     0.10700
H381        H  0.98364034  0.05238569  0.07715171     0.10600
H382        H  0.95946999  0.07186256  0.07856154     0.11100
H383        H  0.02968938  0.02215159  0.08325785     0.11200
H384        H  0.05143261  0.99983736  0.08685627     0.11200
H385        H  0.04936464  0.99555007  0.91322435     0.11300
H386        H  0.02768842  0.01776527  0.91037713     0.10100
C387        C  0.05809112  0.92243032  0.00846212    -0.03700
C388        C  0.05292723  0.91385767  0.96149958    -0.09400
C389        C  0.04133212  0.90038452  0.96462254    -0.17100
C390        C  0.03479251  0.89536370  0.01460803     0.25100
C391        C  0.03999874  0.90368312  0.06156681    -0.18800
C392        C  0.05160604  0.91710199  0.05858774    -0.07700
C393        C  0.02252038  0.88186222  0.01762849    -0.14100
C394        C  0.01200316  0.87072949  0.01902687    -0.13900
C395        C  0.99931665  0.85758269  0.01805692     0.25000
C396        C  0.99455509  0.84927458  0.06558613    -0.19300
C397        C  0.98232180  0.83633631  0.06407337    -0.07700
C398        C  0.97477340  0.83157627  0.01489711    -0.03800
C399        C  0.97962283  0.84008420  0.96744650    -0.09100
C400        C  0.99179547  0.85301267  0.96909723    -0.16700
H401        H  0.05775341  0.91761335  0.92240922     0.11400
H402        H  0.03736925  0.89397147  0.92805373     0.10700
H403        H  0.03501860  0.89986246  0.10043624     0.10600
H404        H  0.05536062  0.92340085  0.09554948     0.11100
H405        H  0.00035335  0.85272827  0.10368018     0.11200
H406        H  0.97893235  0.82994427  0.10119995     0.11200
H407        H  0.97408311  0.83670386  0.92892848     0.11300
H408        H  0.99541877  0.85937873  0.93210873     0.10100
C409        C  0.96080460  0.42383185  0.88805051    -0.03700
C410        C  0.97498664  0.41357491  0.87628402    -0.09400
C411        C  0.97421036  0.40130787  0.83536325    -0.17100
C412        C  0.95932056  0.39913086  0.80500233     0.25100
C413        C  0.94529050  0.40961222  0.81538134    -0.18800
C414        C  0.94598458  0.42180564  0.85671046    -0.07700
C415        C  0.95843482  0.38593446  0.76414450    -0.14100
C416        C  0.95812212  0.37457766  0.73104834    -0.13900
C417        C  0.95815076  0.36079855  0.69207397     0.25000
C418        C  0.94300102  0.35562419  0.66700117    -0.19300
C419        C  0.94307967  0.34235504  0.62918858    -0.07700
C420        C  0.95830758  0.33394565  0.61585612    -0.03800
C421        C  0.97347010  0.33922517  0.64124126    -0.09100
C422        C  0.97337197  0.35250366  0.67902073    -0.16700
H423        H  0.98663835  0.41485030  0.89927800     0.11400
H424        H  0.98521746  0.39340730  0.82771709     0.10700
H425        H  0.93371952  0.40821418  0.79201765     0.10600
H426        H  0.93494235  0.42967484  0.86400503     0.11100
H427        H  0.93111814  0.36188399  0.67650729     0.11200
H428        H  0.93121957  0.33879158  0.60995759     0.11200
H429        H  0.98542113  0.33306538  0.63201461     0.11300
H430        H  0.98520449  0.35631579  0.69801980     0.10100
C431        C  0.95592264  0.33227317  0.38820097    -0.03700
C432        C  0.94057369  0.34043690  0.37488388    -0.09400
C433        C  0.94033916  0.35344561  0.33623205    -0.17100
C434        C  0.95543607  0.35845142  0.31059138     0.25100
C435        C  0.97070044  0.35031031  0.32342361    -0.18800
C436        C  0.97096193  0.33735245  0.36185610    -0.07700
C437        C  0.95553416  0.37210814  0.27180458    -0.14100
C438        C  0.95655938  0.38351483  0.23939038    -0.13900
C439        C  0.95817916  0.39700990  0.20035479     0.25000
C440        C  0.97345825  0.39934461  0.17218613    -0.19300
C441        C  0.97484114  0.41214983  0.13319191    -0.07700
C442        C  0.96086398  0.42265967  0.12146874    -0.03800
C443        C  0.94566660  0.42037518  0.15060131    -0.09100
C444        C  0.94440347  0.40774092  0.19003081    -0.16700
H445        H  0.92884520  0.33697861  0.39497743     0.11400
H446        H  0.92844516  0.35970854  0.32678732     0.10700
H447        H  0.98246357  0.35406618  0.30395341     0.10600
H448        H  0.98300717  0.33136197  0.37109256     0.11100
H449        H  0.98426900  0.39119440  0.18010318     0.11200
H450        H  0.98672807  0.41363749  0.11164172     0.11200
H451        H  0.93473143  0.42838107  0.14302132     0.11300
H452        H  0.93260871  0.40623437  0.21208852     0.10100
C453        C  0.97492285  0.18093998  0.91470691    -0.03700
C454        C  0.97320179  0.17387918  0.86270216    -0.09400
C455        C  0.97197404  0.18427384  0.81718510    -0.17100
C456        C  0.97268248  0.20193966  0.82267115     0.25100
C457        C  0.97518095  0.20912975  0.87354947    -0.18800
C458        C  0.97635489  0.19879279  0.91920469    -0.07700
C459        C  0.97037483  0.21278481  0.77654974    -0.14100
C460        C  0.96824580  0.22247418  0.73952824    -0.13900
C461        C  0.96604844  0.23475076  0.69710739     0.25000
C462        C  0.95002201  0.24184842  0.68701092    -0.19300
C463        C  0.94814349  0.25443272  0.64754925    -0.07700
C464        C  0.96233137  0.26012944  0.61803719    -0.03800
C465        C  0.97831666  0.25270573  0.62799776    -0.09100
C466        C  0.98013868  0.24011047  0.66718898    -0.16700
H467        H  0.97222935  0.16023508  0.85756244     0.11400
H468        H  0.97015265  0.17854093  0.77792827     0.10700
H469        H  0.97592598  0.22281773  0.87813976     0.04200
H470        H  0.97809747  0.20509290  0.95720073     0.11100
H471        H  0.93902410  0.23779416  0.71002114     0.11200
H472        H  0.93567458  0.25985075  0.64068294     0.11200
H473        H  0.98947032  0.25666704  0.60561981     0.11300
H474        H  0.99259001  0.23470097  0.67460384     0.10100
C475        C  0.97193633  0.17220877  0.11728831    -0.03700
C476        C  0.95649882  0.17080567  0.14555823    -0.09400
C477        C  0.95339905  0.18108484  0.19091937    -0.17100
C478        C  0.96574842  0.19277634  0.20867070     0.25100
C479        C  0.98148502  0.19347454  0.18228553    -0.18800
C480        C  0.98452762  0.18334307  0.13696629    -0.07700
C481        C  0.96212810  0.20493177  0.25119265    -0.14100
C482        C  0.96029854  0.21612258  0.28434852    -0.13900
C483        C  0.95959924  0.23023478  0.32203993     0.25000
C484        C  0.97463597  0.23868288  0.33662087    -0.19300
C485        C  0.97423079  0.25247745  0.37230342    -0.07700
C486        C  0.95873074  0.25817135  0.39418857    -0.03800
C487        C  0.94362501  0.24965050  0.37927463    -0.09100
C488        C  0.94406568  0.23580446  0.34349324    -0.16700
H489        H  0.94643177  0.16268374  0.13034490     0.11400
H490        H  0.94112452  0.18042520  0.21066963     0.10700
H491        H  0.99115686  0.20242913  0.19526518     0.10600
H492        H  0.99638883  0.18490550  0.11525709     0.11100
H493        H  0.98674389  0.23460150  0.32032338     0.11200
H494        H  0.98610557  0.25865605  0.38284436     0.11200
H495        H  0.93146808  0.25362070  0.39544381     0.11300
H496        H  0.93229888  0.22946713  0.33257995     0.10100
C497        C  0.97891678  0.58237450  0.40189489    -0.03700
C498        C  0.96370797  0.58113027  0.37196354    -0.09400
C499        C  0.96175620  0.56868184  0.33195774    -0.17100
C500        C  0.97483584  0.55708608  0.32153469     0.25100
C501        C  0.98999289  0.55817560  0.35126223    -0.18800
C502        C  0.99205652  0.57074736  0.39091917    -0.07700
C503        C  0.97272915  0.54416599  0.28026944    -0.14100
C504        C  0.97110854  0.53337644  0.24569529    -0.13900
C505        C  0.96960870  0.52041989  0.20428497     0.25000
C506        C  0.98390622  0.51099343  0.18890462    -0.19300
C507        C  0.98258060  0.49845954  0.14892447    -0.07700
C508        C  0.96689471  0.49509344  0.12346536    -0.03800
C509        C  0.95263277  0.50475226  0.13870813    -0.09100
C510        C  0.95395384  0.51723775  0.17895232    -0.16700
H511        H  0.95336131  0.58991177  0.37899381     0.11400
H512        H  0.95003479  0.56813486  0.30899842     0.10700
H513        H  0.00025619  0.54933675  0.34367505     0.10600
H514        H  0.00391836  0.57132134  0.41311829     0.11100
H515        H  0.99611664  0.51331582  0.20789015     0.11200
H516        H  0.99385207  0.49135512  0.13811175     0.11200
H517        H  0.94048019  0.50276592  0.11912542     0.11300
H518        H  0.94277202  0.52444560  0.19012342     0.10100
C519        C  0.97640401  0.58608120  0.63153492    -0.03700
C520        C  0.99005016  0.57630364  0.65108389    -0.09400
C521        C  0.98728529  0.56361829  0.68941797    -0.17100
C522        C  0.97088813  0.56057680  0.70905566     0.25100
C523        C  0.95727812  0.57049612  0.69094135    -0.18800
C524        C  0.95998174  0.58313531  0.65217002    -0.07700
C525        C  0.96816909  0.54712068  0.74730730    -0.14100
C526        C  0.96684158  0.53564190  0.77916875    -0.13900
C527        C  0.96614561  0.52200278  0.81766067     0.25000
C528        C  0.95160777  0.51962752  0.84925903    -0.19300
C529        C  0.95113719  0.50664630  0.88765319    -0.07700
C530        C  0.96524553  0.49591519  0.89503582    -0.03800
C531        C  0.97979415  0.49837365  0.86303994    -0.09100
C532        C  0.98020461  0.51131727  0.82444913    -0.16700
H533        H  0.00285770  0.57825453  0.63615388     0.11400
H534        H  0.99792469  0.55607559  0.70339562     0.10700
H535        H  0.94457159  0.56839254  0.70651203     0.10600
H536        H  0.94923360  0.59049071  0.63812660     0.11100
H537        H  0.94066353  0.52783151  0.84436273     0.11200
H538        H  0.93978294  0.50511160  0.91190211     0.11200
H539        H  0.99080273  0.49025503  0.86766191     0.11300
H540        H  0.99152616  0.51306284  0.80015109     0.10100
C541        C  0.99339494  0.65218684  0.39003747    -0.03700
C542        C  0.01013779  0.65527286  0.37231025    -0.09400
C543        C  0.01318404  0.66593896  0.32835953    -0.17100
C544        C  0.99956341  0.67362391  0.30160635     0.25100
C545        C  0.98287708  0.67069729  0.31903725    -0.18800
C546        C  0.97979195  0.66005075  0.36301780    -0.07700
C547        C  0.00266815  0.68468951  0.25666041    -0.14100
C548        C  0.00470566  0.69435005  0.21960731    -0.13900
C549        C  0.00614400  0.70641750  0.17644070     0.25000
C550        C  0.01766191  0.71995740  0.18017271    -0.19300
C551        C  0.01814334  0.73245707  0.14009111    -0.07700
C552        C  0.00698371  0.73158806  0.09563026    -0.03800
C553        C  0.99575221  0.71758689  0.09198775    -0.09100
C554        C  0.99533323  0.70514757  0.13197189    -0.16700
H555        H  0.02088658  0.64941578  0.39225709     0.11400
H556        H  0.02614977  0.66817819  0.31523404     0.10700
H557        H  0.97225237  0.67663376  0.29860798     0.10600
H558        H  0.96676506  0.65790357  0.37560165     0.11100
H559        H  0.02605025  0.72104808  0.21468357     0.11200
H560        H  0.02699726  0.74280156  0.14536822     0.11200
H561        H  0.98696090  0.71651437  0.05849060     0.11300
H562        H  0.98631568  0.69474363  0.12874991     0.10100
C563        C  0.00471807  0.74347281  0.89863564    -0.03700
C564        C  0.98964262  0.74476066  0.86840224    -0.09400
C565        C  0.98741658  0.73495435  0.82149583    -0.17100
C566        C  0.00031083  0.72390264  0.80410619     0.25100
C567        C  0.01573433  0.72344426  0.83235500    -0.18800
C568        C  0.01790725  0.73309385  0.87922899    -0.07700
C569        C  0.99741145  0.71194713  0.76047455    -0.14100
C570        C  0.99557839  0.70085408  0.72698435    -0.13900
C571        C  0.99377745  0.68681776  0.68939534     0.25000
C572        C  0.00779987  0.67656142  0.67690828    -0.19300
C573        C  0.00601430  0.66271144  0.64166249    -0.07700
C574        C  0.99012176  0.65882129  0.61833882    -0.03800
C575        C  0.97610257  0.66920523  0.63114438    -0.09100
C576        C  0.97792747  0.68305945  0.66629356    -0.16700
H577        H  0.97916082  0.75236686  0.88313053     0.11400
H578        H  0.97537794  0.73541483  0.80026833     0.10700
H579        H  0.02581907  0.71498716  0.81961289     0.10600
H580        H  0.02956483  0.73173596  0.90213143     0.11100
H581        H  0.02013544  0.67923228  0.69459007     0.11200
H582        H  0.01707613  0.65503993  0.63276898     0.11200
H583        H  0.96368520  0.66665426  0.61392016     0.11300
H584        H  0.96693738  0.69079793  0.67561079     0.10100
C585        C  0.29987146  0.99598718  0.39348475    -0.03700
C586        C  0.31152407  0.00923580  0.38312317    -0.09400
C587        C  0.32411012  0.00745378  0.34350229    -0.17100
C588        C  0.32521868  0.99246528  0.31322365     0.25100
C589        C  0.31366092  0.97923477  0.32317825    -0.18800
C590        C  0.30116433  0.98091816  0.36316346    -0.07700
C591        C  0.33807164  0.99073656  0.27169338    -0.14100
C592        C  0.34876981  0.98935627  0.23681025    -0.13900
C593        C  0.36156358  0.98774351  0.19505121     0.25000
C594        C  0.36540883  0.97177345  0.17329874    -0.19300
C595        C  0.37784256  0.97019377  0.13311270    -0.07700
C596        C  0.38678544  0.98454384  0.11426064    -0.03800
C597        C  0.38272043  0.00056897  0.13598737    -0.09100
C598        C  0.37022246  0.00213805  0.17599271    -0.16700
H599        H  0.31091941  0.02100672  0.40563859     0.11400
H600        H  0.33291857  0.01782689  0.33628049     0.10700
H601        H  0.31425088  0.96762198  0.29982422     0.10600
H602        H  0.29236288  0.97050652  0.36978745     0.11100
H603        H  0.35880380  0.96051545  0.18741112     0.11200
H604        H  0.38043006  0.95772080  0.11672633     0.11200
H605        H  0.38925379  0.01190777  0.12228022     0.11300
H606        H  0.36736279  0.01459084  0.19220612     0.10100
C607        C  0.29515622  0.99312982  0.62484925    -0.03700
C608        C  0.29766245  0.97667755  0.64571288    -0.09400
C609        C  0.30958222  0.97389399  0.68681609    -0.17100
C610        C  0.31923675  0.98745638  0.70711993     0.25100
C611        C  0.31658325  0.00386838  0.68729015    -0.18800
C612        C  0.30462550  0.00670992  0.64663628    -0.07700
C613        C  0.33231141  0.98465730  0.74688386    -0.14100
C614        C  0.34385251  0.98339126  0.77874662    -0.13900
C615        C  0.35798389  0.98279151  0.81576830     0.25000
C616        C  0.36879645  0.99688924  0.82125744    -0.19300
C617        C  0.38244725  0.99644522  0.85753615    -0.07700
C618        C  0.38548657  0.98183218  0.88862545    -0.03800
C619        C  0.37455798  0.96772811  0.88274748    -0.09100
C620        C  0.36093211  0.96819767  0.84651556    -0.16700
H621        H  0.29051826  0.96595968  0.63007617     0.11400
H622        H  0.31139056  0.96117034  0.70235971     0.10700
H623        H  0.32392966  0.01447718  0.70281331     0.10600
H624        H  0.30298080  0.01953830  0.63178233     0.11100
H625        H  0.36664142  0.00825565  0.79758829     0.11200
H626        H  0.39062191  0.00749151  0.86117271     0.11200
H627        H  0.37642723  0.95635747  0.90659896     0.11300
H628        H  0.35267509  0.95720721  0.84265909     0.10100
C629        C  0.09355202  0.04682102  0.99543851    -0.03700
C630        C  0.09423233  0.06403336  0.01170432    -0.09400
C631        C  0.07969053  0.07435342  0.01132534    -0.17100
C632        C  0.06394477  0.06796579  0.99412920     0.25100
C633        C  0.06321697  0.05107274  0.97529590    -0.18800
C634        C  0.07785603  0.04059115  0.97595670    -0.07700
C635        C  0.04882214  0.07889766  0.99687102    -0.14100
C636        C  0.03726220  0.08921900  0.00101740    -0.13900
C637        C  0.02466078  0.10292987  0.00534979     0.25000
C638        C  0.00800510  0.10002987  0.02431643    -0.19300
C639        C  0.99594940  0.11335375  0.02623125    -0.07700
C640        C  0.00032764  0.12990479  0.00929071    -0.03800
C641        C  0.01727594  0.13276588  0.99248981    -0.09100
C642        C  0.02918221  0.11950616  0.99034472    -0.16700
H643        H  0.10608151  0.06961672  0.02530908     0.11400
H644        H  0.08073561  0.08737857  0.02517807     0.10700
H645        H  0.05129296  0.04594154  0.96076539     0.10600
H646        H  0.07675383  0.02750077  0.96288081     0.11100
H647        H  0.00427182  0.08742467  0.03710913     0.11200
H648        H  0.98309642  0.11057872  0.03930108     0.11200
H649        H  0.02138954  0.14534029  0.98038859     0.11300
H650        H  0.04196919  0.12220828  0.97638726     0.10100
C651        C  0.22912423  0.01138610  0.38260939    -0.03700
C652        C  0.21961427  0.99814958  0.35895381    -0.09400
C653        C  0.20785105  0.00161793  0.31804490    -0.17100
C654        C  0.20543373  0.01833343  0.30024272     0.25100
C655        C  0.21488158  0.03155408  0.32335675    -0.18800
C656        C  0.22663620  0.02812766  0.36423717    -0.07700
C657        C  0.19341971  0.02190286  0.25785482    -0.14100
C658        C  0.18359197  0.02452196  0.22141978    -0.13900
C659        C  0.17223801  0.02654167  0.17627095     0.25000
C660        C  0.15763770  0.03662663  0.18032022    -0.19300
C661        C  0.14611470  0.03757397  0.13723980    -0.07700
C662        C  0.14905882  0.02835154  0.08938546    -0.03800
C663        C  0.16402880  0.01854729  0.08583229    -0.09100
C664        C  0.17549785  0.01771750  0.12862896    -0.16700
H665        H  0.22122085  0.98512541  0.37211134     0.11400
H666        H  0.20064693  0.99126595  0.30031537     0.10700
H667        H  0.21316256  0.04452629  0.30978844     0.10600
H668        H  0.23374229  0.03860993  0.38151292     0.11100
H669        H  0.15494134  0.04343731  0.21726775     0.11200
H670        H  0.13472547  0.04495627  0.14299108     0.11200
H671        H  0.16658495  0.01101865  0.05021705     0.11300
H672        H  0.18670447  0.00980842  0.12502627     0.10100
C673        C  0.13974030  0.02616754  0.88976132    -0.03700
C674        C  0.15185477  0.03844869  0.87409377    -0.09400
C675        C  0.16149409  0.03631585  0.82724764    -0.17100
C676        C  0.15916577  0.02192946  0.79489014     0.25100
C677        C  0.14629108  0.01022108  0.80809690    -0.18800
C678        C  0.13656697  0.01236654  0.85517120    -0.07700
C679        C  0.17098536  0.01864588  0.75126483    -0.14100
C680        C  0.18200932  0.01622688  0.71798990    -0.13900
C681        C  0.19596944  0.01365718  0.68066211     0.25000
C682        C  0.19863971  0.99772025  0.65691569    -0.19300
C683        C  0.21235030  0.99519517  0.62163675    -0.07700
C684        C  0.22363510  0.00859776  0.60938195    -0.03800
C685        C  0.22087313  0.02455371  0.63356641    -0.09100
C686        C  0.20719353  0.02703159  0.66892315    -0.16700
H687        H  0.15449068  0.04930127  0.89966636     0.11400
H688        H  0.17130824  0.04552993  0.81759490     0.10700
H689        H  0.14430605  0.99903097  0.78342997     0.10600
H690        H  0.12745993  0.00263937  0.86642149     0.11100
H691        H  0.19014031  0.98721965  0.66573291     0.11200
H692        H  0.21405472  0.98275970  0.60375931     0.11200
H693        H  0.22929334  0.03514908  0.62521997     0.11300
H694        H  0.20538703  0.03940665  0.68717323     0.10100
C695        C  0.54774182  0.97073108  0.60777829    -0.03700
C696        C  0.54368618  0.98553187  0.63691971    -0.09400
C697        C  0.53072990  0.98537771  0.67571766    -0.17100
C698        C  0.52148303  0.97047403  0.68603929     0.25100
C699        C  0.52536062  0.95567888  0.65704031    -0.18800
C700        C  0.53838445  0.95579578  0.61825738    -0.07700
C701        C  0.50804241  0.97051432  0.72618797    -0.14100
C702        C  0.49695086  0.97123730  0.76010842    -0.13900
C703        C  0.48392466  0.97273810  0.80131421     0.25000
C704        C  0.47139599  0.96014070  0.80732252    -0.19300
C705        C  0.45906624  0.96147884  0.84803160    -0.07700
C706        C  0.45887209  0.97562180  0.88277345    -0.03800
C707        C  0.47132016  0.98834156  0.87593151    -0.09100
C708        C  0.48379399  0.98684274  0.83583062    -0.16700
H709        H  0.55062610  0.99724312  0.63002544     0.11400
H710        H  0.52791919  0.99693054  0.69769561     0.10700
H711        H  0.51834092  0.94403900  0.66442192     0.10600
H712        H  0.54107540  0.94421639  0.59630331     0.11100
H713        H  0.47128361  0.94915734  0.78100060     0.11200
H714        H  0.44961299  0.95150992  0.85210213     0.11200
H715        H  0.47154700  0.99935691  0.90209507     0.11300
H716        H  0.49335635  0.99671189  0.83177030     0.10100
C717        C  0.45901763  0.97704911  0.11462192    -0.03700
C718        C  0.47097418  0.99013823  0.12257112    -0.09400
C719        C  0.48366086  0.98852767  0.16188014    -0.17100
C720        C  0.48442418  0.97392972  0.19411464     0.25100
C721        C  0.47231050  0.96103603  0.18733471    -0.18800
C722        C  0.45975949  0.96251937  0.14764360    -0.07700
C723        C  0.49773904  0.97213645  0.23367854    -0.14100
C724        C  0.50910383  0.97106616  0.26624171    -0.13900
C725        C  0.52287111  0.97074356  0.30463888     0.25000
C726        C  0.52687453  0.95579279  0.33249723    -0.19300
C727        C  0.54013625  0.95571994  0.37027802    -0.07700
C728        C  0.54958206  0.97059479  0.38043730    -0.03800
C729        C  0.54544359  0.98553237  0.35220254    -0.09100
C730        C  0.53220919  0.98558204  0.31457972    -0.16700
H731        H  0.47071189  0.00145542  0.09775401     0.11400
H732        H  0.49293996  0.99862171  0.16690237     0.10700
H733        H  0.47270753  0.94972288  0.21219868     0.10600
H734        H  0.45060338  0.95230580  0.14288855     0.11100
H735        H  0.51964294  0.94426173  0.32544191     0.11200
H736        H  0.54277743  0.94414113  0.39227531     0.11200
H737        H  0.55240902  0.99722107  0.35928251     0.11300
H738        H  0.52920254  0.99724088  0.29340843     0.10100
C739        C  0.62048824  0.97440277  0.61463608    -0.03700
C740        C  0.62605141  0.99050393  0.63217882    -0.09400
C741        C  0.63843511  0.99198281  0.67212025    -0.17100
C742        C  0.64547015  0.97743710  0.69526108     0.25100
C743        C  0.64000409  0.96130340  0.67848568    -0.18800
C744        C  0.62755817  0.95977498  0.63828324    -0.07700
C745        C  0.65811225  0.97931412  0.73669302    -0.14100
C746        C  0.66828510  0.98175208  0.77219462    -0.13900
C747        C  0.67978426  0.98460325  0.81633040     0.25000
C748        C  0.67972548  0.97335878  0.85973884    -0.19300
C749        C  0.69077454  0.97594306  0.90287633    -0.07700
C750        C  0.70217685  0.98983652  0.90364320    -0.03800
C751        C  0.70197602  0.00125143  0.85981436    -0.09100
C752        C  0.69083539  0.99860350  0.81647749    -0.16700
H753        H  0.62088678  0.00202778  0.61492016     0.11400
H754        H  0.64253127  0.00451222  0.68497319     0.10700
H755        H  0.64534584  0.94995182  0.69641533     0.10600
H756        H  0.62350311  0.94721342  0.62572472     0.11100
H757        H  0.67117912  0.96252201  0.86017211     0.11200
H758        H  0.69059798  0.96689021  0.93576798     0.11200
H759        H  0.71036495  0.01209885  0.85796120     0.11300
H760        H  0.69089004  0.00743956  0.78298609     0.10100
C761        C  0.62425017  0.97379614  0.38834234    -0.03700
C762        C  0.63261077  0.95900385  0.37044633    -0.09400
C763        C  0.64643862  0.96008243  0.33455296    -0.17100
C764        C  0.65216426  0.97595758  0.31592082     0.25100
C765        C  0.64393131  0.99069222  0.33374371    -0.18800
C766        C  0.63016999  0.98964673  0.36953051    -0.07700
C767        C  0.66602435  0.97732557  0.27722625    -0.14100
C768        C  0.67677120  0.97966393  0.24276620    -0.13900
C769        C  0.68802454  0.98375526  0.19799389     0.25000
C770        C  0.68328819  0.99656188  0.16190517    -0.19300
C771        C  0.69298393  0.99976607  0.11574745    -0.07700
C772        C  0.70766055  0.99017049  0.10427134    -0.03800
C773        C  0.71294026  0.97792978  0.14202153    -0.09100
C774        C  0.70314100  0.97469645  0.18852651    -0.16700
H775        H  0.62845036  0.94660385  0.38413109     0.11400
H776        H  0.65258429  0.94852909  0.32112491     0.10700
H777        H  0.64809916  0.00306194  0.31969808     0.10600
H778        H  0.62414256  0.00131601  0.38239510     0.11100
H779        H  0.67174554  0.00376948  0.16855616     0.11200
H780        H  0.68862108  0.00937795  0.08777273     0.11200
H781        H  0.72404860  0.97021385  0.13404830     0.11300
H782        H  0.70704774  0.96476833  0.21605632     0.10100
C783        C  0.31588805  0.91976495  0.62172482    -0.03700
C784        C  0.32512291  0.93468065  0.63366523    -0.09400
C785        C  0.33784995  0.93471231  0.67354820    -0.17100
C786        C  0.34161105  0.91983954  0.70235170     0.25100
C787        C  0.33244813  0.90494835  0.69076200    -0.18800
C788        C  0.31976270  0.90488521  0.65081365    -0.07700
C789        C  0.35492589  0.91977355  0.74325810    -0.14100
C790        C  0.36609944  0.91947466  0.77719493    -0.13900
C791        C  0.37951751  0.91889933  0.81768987     0.25000
C792        C  0.38132281  0.90463250  0.85110994    -0.19300
C793        C  0.39430962  0.90401383  0.89001140    -0.07700
C794        C  0.40563567  0.91776116  0.89672456    -0.03800
C795        C  0.40374473  0.93205152  0.86308720    -0.09100
C796        C  0.39089103  0.93255098  0.82372307    -0.16700
H797        H  0.32262398  0.94631422  0.61176701     0.11400
H798        H  0.34478226  0.94635061  0.68179387     0.10700
H799        H  0.33514395  0.89332387  0.71252510     0.10600
H800        H  0.31293160  0.89317834  0.64284807     0.11100
H801        H  0.37269357  0.89393875  0.84706152     0.11200
H802        H  0.39537463  0.89284492  0.91526644     0.11200
H803        H  0.41234165  0.94278038  0.86676300     0.11300
H804        H  0.38978736  0.94364381  0.79812833     0.10100
C805        C  0.31819921  0.92090397  0.39604136    -0.03700
C806        C  0.32376286  0.93630944  0.37316047    -0.09400
C807        C  0.33738791  0.93657783  0.33671221    -0.17100
C808        C  0.34575959  0.92147264  0.32314171     0.25100
C809        C  0.34053108  0.90614941  0.34658620    -0.18800
C810        C  0.32685951  0.90584503  0.38263040    -0.07700
C811        C  0.35946512  0.92151103  0.28441442    -0.14100
C812        C  0.37067662  0.92089283  0.25117479    -0.13900
C813        C  0.38374841  0.91975786  0.21049564     0.25000
C814        C  0.38637526  0.90447056  0.18279455    -0.19300
C815        C  0.39873067  0.90347097  0.14227659    -0.07700
C816        C  0.40852934  0.91782422  0.12858296    -0.03800
C817        C  0.40593391  0.93307532  0.15708267    -0.09100
C818        C  0.39369097  0.93399403  0.19787895    -0.16700
H819        H  0.31754344  0.94810921  0.38335630     0.11400
H820        H  0.34135441  0.94854311  0.31901734     0.10700
H821        H  0.34694273  0.89438719  0.33667001     0.10600
H822        H  0.32308844  0.89378624  0.40002704     0.11100
H823        H  0.37878449  0.89334314  0.19225425     0.11200
H824        H  0.40042130  0.89155992  0.12112441     0.11200
H825        H  0.41334845  0.94433401  0.14781078     0.11300
H826        H  0.39186220  0.94586356  0.21918513     0.10100
C827        C  0.11050487  0.88181432  0.01411912    -0.03700
C828        C  0.11347202  0.86457004  0.00145960    -0.09400
C829        C  0.10035290  0.85240388  0.00367001    -0.17100
C830        C  0.08379448  0.85700541  0.01866195     0.25100
C831        C  0.08078389  0.87406427  0.03311663    -0.18800
C832        C  0.09400377  0.88633166  0.03105775    -0.07700
C833        C  0.07013584  0.84416148  0.01803842    -0.14100
C834        C  0.05970074  0.83256948  0.01609721    -0.13900
C835        C  0.04841467  0.81762009  0.01394579     0.25000
C836        C  0.03131775  0.81874837  0.99701065    -0.19300
C837        C  0.02071683  0.80415643  0.99556501    -0.07700
C838        C  0.02695651  0.78812275  0.01134674    -0.03800
C839        C  0.04420669  0.78713920  0.02723510    -0.09100
C840        C  0.05470753  0.80162213  0.02860692    -0.16700
H841        H  0.12600600  0.86046771  0.98897627     0.11400
H842        H  0.10311764  0.83936635  0.99276752     0.10700
H843        H  0.06814357  0.87796542  0.04509216     0.10600
H844        H  0.09115606  0.89944352  0.04065480     0.11100
H845        H  0.02612337  0.83092647  0.98528436     0.11200
H846        H  0.00753605  0.80551383  0.98353890     0.11200
H847        H  0.04969853  0.77507005  0.03870713     0.11300
H848        H  0.06783238  0.80030312  0.04136388     0.10100
C849        C  0.15974830  0.90799130  0.90499593    -0.03700
C850        C  0.15953118  0.89529642  0.86471314    -0.09400
C851        C  0.17044825  0.89638482  0.82013650    -0.17100
C852        C  0.18174837  0.91008396  0.81494639     0.25100
C853        C  0.18226137  0.92258011  0.85488502    -0.18800
C854        C  0.17144510  0.92152471  0.89938293    -0.07700
C855        C  0.19303150  0.91133942  0.76925392    -0.14100
C856        C  0.20308882  0.91275196  0.73273013    -0.13900
C857        C  0.21587712  0.91420579  0.69128372     0.25000
C858        C  0.22135418  0.93021066  0.67334912    -0.19300
C859        C  0.23442922  0.93151517  0.63515922    -0.07700
C860        C  0.24219580  0.91679754  0.61448336    -0.03800
C861        C  0.23641519  0.90079483  0.63230070    -0.09100
C862        C  0.22338508  0.89953199  0.67037564    -0.16700
H863        H  0.15107079  0.88452615  0.86665267     0.11400
H864        H  0.17003446  0.88653833  0.78961771     0.10700
H865        H  0.19101046  0.93319911  0.85160184     0.10600
H866        H  0.17206307  0.93146871  0.92952085     0.11100
H867        H  0.21565282  0.94167481  0.68928996     0.11200
H868        H  0.23851032  0.94401535  0.62210347     0.11200
H869        H  0.24204092  0.88919982  0.61712898     0.11300
H870        H  0.21929508  0.88708410  0.68396326     0.10100
C871        C  0.24247992  0.91854025  0.38993318    -0.03700
C872        C  0.23447375  0.93361956  0.37262694    -0.09400
C873        C  0.22077235  0.93311070  0.33597324    -0.17100
C874        C  0.21472958  0.91753436  0.31578210     0.25100
C875        C  0.22261996  0.90249296  0.33292640    -0.18800
C876        C  0.23629441  0.90297195  0.36951633    -0.07700
C877        C  0.20076965  0.91689253  0.27673844    -0.14100
C878        C  0.18965908  0.91568699  0.24254393    -0.13900
C879        C  0.17745038  0.91327621  0.19861269     0.25000
C880        C  0.17925758  0.89936817  0.16385750    -0.19300
C881        C  0.16874909  0.89760376  0.11848131    -0.07700
C882        C  0.15605581  0.90966828  0.10664394    -0.03800
C883        C  0.15366717  0.92318868  0.14293946    -0.09100
C884        C  0.16433528  0.92502082  0.18846345    -0.16700
H885        H  0.23874764  0.94584289  0.38757570     0.11400
H886        H  0.21491579  0.94490267  0.32332986     0.10700
H887        H  0.21821594  0.89032109  0.31789062     0.10600
H888        H  0.24199489  0.89108958  0.38194667     0.11100
H889        H  0.18921166  0.89011705  0.17081995     0.11200
H890        H  0.17096356  0.88707973  0.09127673     0.11200
H891        H  0.14421674  0.93282573  0.13448975     0.11300
H892        H  0.16269284  0.93587935  0.21472474     0.10100
C893        C  0.48175655  0.91477032  0.11738995    -0.03700
C894        C  0.48537054  0.89981545  0.14631358    -0.09400
C895        C  0.49866603  0.89943585  0.18403802    -0.17100
C896        C  0.50865080  0.91394088  0.19333983     0.25100
C897        C  0.50538780  0.92877205  0.16386168    -0.18800
C898        C  0.49209229  0.92917215  0.12610715    -0.07700
C899        C  0.52192541  0.91365934  0.23395283    -0.14100
C900        C  0.53259724  0.91306833  0.26919539    -0.13900
C901        C  0.54484518  0.91182855  0.31273296     0.25000
C902        C  0.55930331  0.92232961  0.31393086    -0.19300
C903        C  0.57105307  0.92106480  0.35638220    -0.07700
C904        C  0.56869036  0.90900356  0.39759184    -0.03800
C905        C  0.55418059  0.89851127  0.39606935    -0.09100
C906        C  0.54229063  0.90002231  0.35424516    -0.16700
H907        H  0.47775793  0.88847255  0.14038959     0.11400
H908        H  0.50104478  0.88784984  0.20637884     0.10700
H909        H  0.51301962  0.94007916  0.17036177     0.10600
H910        H  0.48986912  0.94079167  0.10382373     0.11100
H911        H  0.56144703  0.93156064  0.28224956     0.11200
H912        H  0.58216113  0.92925470  0.35641547     0.11200
H913        H  0.55200266  0.88917625  0.42740962     0.11300
H914        H  0.53115852  0.89186241  0.35405943     0.10100
C915        C  0.47960568  0.91572002  0.89491086    -0.03700
C916        C  0.48427790  0.90072306  0.86798299    -0.09400
C917        C  0.49769000  0.90088303  0.83090445    -0.17100
C918        C  0.50658232  0.91599160  0.82048028     0.25100
C919        C  0.50209866  0.93091250  0.84736849    -0.18800
C920        C  0.48876071  0.93077131  0.88447297    -0.07700
C921        C  0.52031005  0.91619290  0.78224388    -0.14100
C922        C  0.53161476  0.91584933  0.74952230    -0.13900
C923        C  0.54456054  0.91409493  0.70906435     0.25000
C924        C  0.55626343  0.92720048  0.69911732    -0.19300
C925        C  0.56857749  0.92533122  0.65876133    -0.07700
C926        C  0.56940599  0.91021597  0.62864208    -0.03800
C927        C  0.55766526  0.89711389  0.63940670    -0.09100
C928        C  0.54531431  0.89908399  0.67914637    -0.16700
H929        H  0.47757880  0.88891404  0.87550658     0.11400
H930        H  0.50112584  0.88923106  0.81038029     0.10700
H931        H  0.50893935  0.94264758  0.83979548     0.10600
H932        H  0.48571138  0.94246319  0.90532022     0.11100
H933        H  0.55576671  0.93888924  0.72212583     0.11200
H934        H  0.57747888  0.93561233  0.65139000     0.11200
H935        H  0.55792229  0.88534754  0.61678841     0.11300
H936        H  0.53632238  0.88886977  0.68652381     0.10100
C937        C  0.71803224  0.87549978  0.10534823    -0.03700
C938        C  0.70381260  0.88639776  0.10416536    -0.09400
C939        C  0.69296417  0.88768014  0.14817389    -0.17100
C940        C  0.69610405  0.87815618  0.19445241     0.25100
C941        C  0.70985625  0.86689711  0.19603369    -0.18800
C942        C  0.72078678  0.86552542  0.15170906    -0.07700
C943        C  0.68542234  0.88056990  0.24058369    -0.14100
C944        C  0.67585187  0.88354837  0.27712571    -0.13900
C945        C  0.66374084  0.88719785  0.31867208     0.25000
C946        C  0.65415395  0.87396846  0.34082636    -0.19300
C947        C  0.64200129  0.87740390  0.38017523    -0.07700
C948        C  0.63927328  0.89416726  0.39791845    -0.03800
C949        C  0.64901369  0.90742001  0.37551521    -0.09100
C950        C  0.66117303  0.90394025  0.33595267    -0.16700
H951        H  0.70144860  0.89444501  0.06954680     0.11400
H952        H  0.68236517  0.89644869  0.14658445     0.10700
H953        H  0.71236575  0.85949235  0.23195876     0.10600
H954        H  0.73160375  0.85719669  0.15524732     0.11100
H955        H  0.65601446  0.86098836  0.32748836     0.11200
H956        H  0.63474001  0.86690535  0.39662921     0.11200
H957        H  0.64724684  0.92043190  0.38849811     0.11300
H958        H  0.66851028  0.91428017  0.31876127     0.10100
C959        C  0.72518098  0.87830692  0.90537717    -0.03700
C960        C  0.71281163  0.86629446  0.88976663    -0.09400
C961        C  0.70312951  0.86869674  0.84313136    -0.17100
C962        C  0.70563253  0.88312701  0.81112849     0.25100
C963        C  0.71861501  0.89468214  0.82462766    -0.18800
C964        C  0.72841340  0.89223976  0.87140468    -0.07700
C965        C  0.69395798  0.88652852  0.76726150    -0.14100
C966        C  0.68305592  0.88892055  0.73358231    -0.13900
C967        C  0.66924624  0.89140026  0.69569265     0.25000
C968        C  0.66522703  0.90772969  0.67719288    -0.19300
C969        C  0.65166036  0.91013709  0.64127976    -0.07700
C970        C  0.64183262  0.89623455  0.62331582    -0.03800
C971        C  0.64592347  0.87987855  0.64232529    -0.09100
C972        C  0.65950300  0.87750309  0.67819571    -0.16700
H973        H  0.71011120  0.85539259  0.91504706     0.11400
H974        H  0.69320255  0.85962589  0.83324216     0.10700
H975        H  0.72069541  0.90592380  0.80027777     0.10600
H976        H  0.73770412  0.90178114  0.88279879     0.11100
H977        H  0.67257115  0.91862100  0.69054512     0.11200
H978        H  0.64892041  0.92288954  0.62742877     0.11200
H979        H  0.63868359  0.86888650  0.62931112     0.11300
H980        H  0.66239089  0.86480361  0.69233170     0.10100
C981        C  0.89598038  0.40375073  0.11333020    -0.03700
C982        C  0.88105534  0.40125931  0.14368955    -0.09400
C983        C  0.88040520  0.38882405  0.18411309    -0.17100
C984        C  0.89460494  0.37860102  0.19461848     0.25100
C985        C  0.90942273  0.38083865  0.16404761    -0.18800
C986        C  0.91010992  0.39330203  0.12372967    -0.07700
C987        C  0.89395390  0.36583635  0.23661979    -0.14100
C988        C  0.89324759  0.35516337  0.27171803    -0.13900
C989        C  0.89209075  0.34236570  0.31350897     0.25000
C990        C  0.90274764  0.32811419  0.31248849    -0.19300
C991        C  0.90141773  0.31559640  0.35249985    -0.07700
C992        C  0.88918703  0.31701144  0.39361317    -0.03800
C993        C  0.87856378  0.33136149  0.39446201    -0.09100
C994        C  0.88009833  0.34399705  0.35493820    -0.16700
H995        H  0.86993663  0.40904995  0.13659480     0.11400
H996        H  0.86883009  0.38721531  0.20726590     0.10700
H997        H  0.92049218  0.37300029  0.17151105     0.10600
H998        H  0.92169112  0.39471796  0.10052813     0.11100
H999        H  0.91208884  0.32666634  0.28074507     0.11200
H1000       H  0.90971011  0.30464176  0.35067309     0.11200
H1001       H  0.86909030  0.33281821  0.42578538     0.11300
H1002       H  0.87179544  0.35495319  0.35637388     0.10100
C1003       C  0.89890035  0.40110094  0.88921053    -0.03700
C1004       C  0.88444664  0.39649852  0.85907359    -0.09400
C1005       C  0.88507520  0.38274690  0.82331888    -0.17100
C1006       C  0.90010620  0.37338744  0.81738890     0.25100
C1007       C  0.91448079  0.37775664  0.84767636    -0.18800
C1008       C  0.91386214  0.39145719  0.88350910    -0.07700
C1009       C  0.90072719  0.35941559  0.77989329    -0.14100
C1010       C  0.90022089  0.34811859  0.74703722    -0.13900
C1011       C  0.89776864  0.33549877  0.70567304     0.25000
C1012       C  0.91022753  0.32326398  0.69458106    -0.19300
C1013       C  0.90766655  0.31141335  0.65306399    -0.07700
C1014       C  0.89249191  0.31156681  0.62293509    -0.03800
C1015       C  0.88002709  0.32378686  0.63498238    -0.09100
C1016       C  0.88269423  0.33567618  0.67579068    -0.16700
H1017       H  0.87272123  0.40359366  0.86280882     0.11400
H1018       H  0.87384823  0.37945079  0.80012886     0.10700
H1019       H  0.92617331  0.37061098  0.84354738     0.10600
H1020       H  0.92511687  0.39447214  0.90689075     0.11100
H1021       H  0.92195500  0.32300527  0.71752777     0.11200
H1022       H  0.91746247  0.30211817  0.64474543     0.11200
H1023       H  0.86825048  0.32431589  0.61235674     0.11300
H1024       H  0.87297320  0.34507730  0.68394249     0.10100
C1025       C  0.83522418  0.11230297  0.99702085    -0.03700
C1026       C  0.81788492  0.11325024  0.01186267    -0.09400
C1027       C  0.80741064  0.09877385  0.01229509    -0.17100
C1028       C  0.81380825  0.08287452  0.99732768     0.25100
C1029       C  0.83085615  0.08186176  0.98023812    -0.18800
C1030       C  0.84148518  0.09640882  0.98010823    -0.07700
C1031       C  0.80271026  0.06787384  0.99989753    -0.14100
C1032       C  0.79233053  0.05631003  0.00285639    -0.13900
C1033       C  0.77862411  0.04363384  0.00484440     0.25000
C1034       C  0.78121618  0.02716224  0.02537667    -0.19300
C1035       C  0.76793670  0.01499268  0.02494107    -0.07700
C1036       C  0.75177266  0.01906969  0.00395898    -0.03800
C1037       C  0.74919366  0.03582391  0.98531423    -0.09100
C1038       C  0.76241590  0.04786172  0.98559486    -0.16700
H1039       H  0.81231994  0.12525931  0.02358660     0.11400
H1040       H  0.79426211  0.10000050  0.02480597     0.10700
H1041       H  0.83597214  0.06978653  0.96750175     0.10600
H1042       H  0.85468264  0.09510724  0.96835251     0.11100
H1043       H  0.79355694  0.02365389  0.04108752     0.11200
H1044       H  0.77049837  0.00226084  0.03933453     0.11200
H1045       H  0.73690196  0.03967198  0.96994595     0.11300
H1046       H  0.75999372  0.06051067  0.97016561     0.10100
C1047       C  0.85401487  0.16860870  0.08492894    -0.03700
C1048       C  0.86506347  0.18274414  0.08194289    -0.09400
C1049       C  0.86555607  0.19484461  0.12282941    -0.17100
C1050       C  0.85500240  0.19313321  0.16765085     0.25100
C1051       C  0.84347385  0.17955989  0.17055383    -0.18800
C1052       C  0.84290994  0.16736813  0.12942275    -0.07700
C1053       C  0.85695310  0.20478323  0.21180264    -0.14100
C1054       C  0.85999279  0.21449015  0.24809429    -0.13900
C1055       C  0.86432851  0.22591953  0.29116123     0.25000
C1056       C  0.88122515  0.22734052  0.30873496    -0.19300
C1057       C  0.88537093  0.23821244  0.35142873    -0.07700
C1058       C  0.87261449  0.24775679  0.37702932    -0.03800
C1059       C  0.85571729  0.24637881  0.35848496    -0.09100
C1060       C  0.85162353  0.23553444  0.31587343    -0.16700
H1061       H  0.87380918  0.18409589  0.04847902     0.11400
H1062       H  0.87454972  0.20528220  0.12018737     0.10700
H1063       H  0.83524635  0.17814219  0.20529225     0.10600
H1064       H  0.83419014  0.15687465  0.13412383     0.11100
H1065       H  0.89117052  0.21997577  0.28965567     0.11200
H1066       H  0.89849495  0.23905538  0.36456890     0.11200
H1067       H  0.84560032  0.25362036  0.37706007     0.11300
H1068       H  0.83853000  0.23457561  0.30243060     0.10100
C1069       C  0.85858806  0.15683650  0.88804670    -0.03700
C1070       C  0.87398648  0.15524137  0.85978404    -0.09400
C1071       C  0.87688189  0.16481111  0.81284047    -0.17100
C1072       C  0.86432622  0.17590286  0.79338436     0.25100
C1073       C  0.84856779  0.17664329  0.81956860    -0.18800
C1074       C  0.84573524  0.16724201  0.86658023    -0.07700
C1075       C  0.86791967  0.18761515  0.74972468    -0.14100
C1076       C  0.87032698  0.19850312  0.71599954    -0.13900
C1077       C  0.87259912  0.21230468  0.67792449     0.25000
C1078       C  0.85857789  0.22195823  0.66134576    -0.19300
C1079       C  0.86072208  0.23559178  0.62557969    -0.07700
C1080       C  0.87697210  0.23984166  0.60570542    -0.03800
C1081       C  0.89100198  0.23005836  0.62254923    -0.09100
C1082       C  0.88882438  0.21643115  0.65837842    -0.16700
H1083       H  0.88419471  0.14757231  0.87607916     0.11400
H1084       H  0.88916025  0.16413443  0.79318485     0.10700
H1085       H  0.83873005  0.18512804  0.80511888     0.10600
H1086       H  0.83381518  0.16878195  0.88788262     0.11100
H1087       H  0.84595631  0.21899000  0.67626141     0.11200
H1088       H  0.84964192  0.24280405  0.61353174     0.11200
H1089       H  0.90369808  0.23296224  0.60820615     0.11300
H1090       H  0.89981524  0.20916472  0.67099323     0.10100
C1091       C  0.90093114  0.56424318  0.60264235    -0.03700
C1092       C  0.91644427  0.55859625  0.62471192    -0.09400
C1093       C  0.91675127  0.54546311  0.66309026    -0.17100
C1094       C  0.90158270  0.53767962  0.67998240     0.25100
C1095       C  0.88612501  0.54304753  0.65759069    -0.18800
C1096       C  0.88578635  0.55618226  0.61937109    -0.07700
C1097       C  0.90179266  0.52435063  0.72055629    -0.14100
C1098       C  0.90161380  0.51333891  0.75484987    -0.13900
C1099       C  0.90106006  0.50028702  0.79629185     0.25000
C1100       C  0.88554187  0.49570123  0.82012443    -0.19300
C1101       C  0.88497056  0.48321763  0.86048836    -0.07700
C1102       C  0.89995044  0.47511100  0.87810432    -0.03800
C1103       C  0.91548123  0.47973092  0.85375151    -0.09100
C1104       C  0.91600377  0.49215478  0.81312928    -0.16700
H1105       H  0.92834268  0.56436986  0.61244854     0.11400
H1106       H  0.92882882  0.54140409  0.67970543     0.10700
H1107       H  0.87427845  0.53714143  0.66992187     0.10600
H1108       H  0.87361589  0.56006314  0.60307147     0.11100
H1109       H  0.87384892  0.50180582  0.80757920     0.11200
H1110       H  0.87278605  0.48000840  0.87818163     0.11200
H1111       H  0.92724027  0.47369732  0.86591265     0.11300
H1112       H  0.92808940  0.49542628  0.79487128     0.10100
C1113       C  0.89820722  0.47607181  0.11071335    -0.03700
C1114       C  0.91263834  0.47813468  0.14375431    -0.09400
C1115       C  0.91307849  0.49076506  0.18342490    -0.17100
C1116       C  0.89924459  0.50171159  0.19011934     0.25100
C1117       C  0.88469105  0.49955422  0.15810581    -0.18800
C1118       C  0.88411543  0.48674607  0.11888211    -0.07700
C1119       C  0.90014283  0.51534766  0.22899699    -0.14100
C1120       C  0.90079552  0.52693388  0.26093126    -0.13900
C1121       C  0.90092552  0.54082469  0.29899108     0.25000
C1122       C  0.88570141  0.54907603  0.31177668    -0.19300
C1123       C  0.88556265  0.56221934  0.34972387    -0.07700
C1124       C  0.90068467  0.56736179  0.37553746    -0.03800
C1125       C  0.91598724  0.55915453  0.36196984    -0.09100
C1126       C  0.91610327  0.54598038  0.32391708    -0.16700
H1127       H  0.92360304  0.46995610  0.13901434     0.11400
H1128       H  0.92431522  0.49214359  0.20837770     0.10700
H1129       H  0.87384406  0.50787689  0.16310874     0.10600
H1130       H  0.87280602  0.48541906  0.09426151     0.11100
H1131       H  0.87388156  0.54524171  0.29275237     0.11200
H1132       H  0.87356462  0.56826271  0.35915606     0.11200
H1133       H  0.92778535  0.56267872  0.38159528     0.11300
H1134       H  0.92798633  0.53970202  0.31441389     0.10100
C1135       C  0.86291787  0.77140971  0.00419147    -0.03700
C1136       C  0.86756559  0.78749461  0.02450820    -0.09400
C1137       C  0.85564882  0.80088078  0.02629791    -0.17100
C1138       C  0.83885090  0.79840096  0.00812195     0.25100
C1139       C  0.83406329  0.78225542  0.98962592    -0.18800
C1140       C  0.84588883  0.76895219  0.98774732    -0.07700
C1141       C  0.82644255  0.81221651  0.00750226    -0.14100
C1142       C  0.81513874  0.82279049  0.00553954    -0.13900
C1143       C  0.80051261  0.83422503  0.00347744     0.25000
C1144       C  0.78399411  0.82749521  0.00627696    -0.19300
C1145       C  0.76979380  0.83825423  0.00738164    -0.07700
C1146       C  0.77171664  0.85604232  0.00515195    -0.03800
C1147       C  0.78825279  0.86280287  0.00033385    -0.09100
C1148       C  0.80254255  0.85196927  0.99983008    -0.16700
H1149       H  0.88054491  0.78991096  0.03717457     0.11400
H1150       H  0.85961592  0.81321639  0.04105286     0.10700
H1151       H  0.82115795  0.77996440  0.97590487     0.10600
H1152       H  0.84168872  0.75670726  0.97284779     0.11100
H1153       H  0.78207625  0.81387316  0.00877515     0.11200
H1154       H  0.75722743  0.83267028  0.01100965     0.11200
H1155       H  0.79015149  0.87644192  0.99920850     0.11300
H1156       H  0.81517364  0.85743884  0.99757430     0.10100
C1157       C  0.88996109  0.72159763  0.90059748    -0.03700
C1158       C  0.90364123  0.71007718  0.89689098    -0.09400
C1159       C  0.90472940  0.69845958  0.85446118    -0.17100
C1160       C  0.89211327  0.69797839  0.81478210     0.25100
C1161       C  0.87838316  0.70924133  0.81783648    -0.18800
C1162       C  0.87726813  0.72095555  0.86028505    -0.07700
C1163       C  0.89321366  0.68572641  0.77158483    -0.14100
C1164       C  0.89432502  0.67516558  0.73639293    -0.13900
C1165       C  0.89543763  0.66232377  0.69495497     0.25000
C1166       C  0.88062402  0.65445239  0.67583276    -0.19300
C1167       C  0.88156432  0.64207691  0.63548318    -0.07700
C1168       C  0.89737643  0.63734160  0.61352782    -0.03800
C1169       C  0.91224401  0.64520951  0.63332789    -0.09100
C1170       C  0.91126351  0.65762141  0.67372975    -0.16700
H1171       H  0.91357135  0.71009113  0.92720862     0.11400
H1172       H  0.91539958  0.68979124  0.85277520     0.10700
H1173       H  0.86846464  0.70892617  0.78747270     0.10600
H1174       H  0.86635899  0.72920088  0.86097388     0.11100
H1175       H  0.86830896  0.65792237  0.69200238     0.11200
H1176       H  0.86987381  0.63627140  0.62134811     0.11200
H1177       H  0.92461622  0.64186868  0.61738024     0.11300
H1178       H  0.92283847  0.66358208  0.68826428     0.10100
C1179       C  0.88902767  0.72672263  0.10142687    -0.03700
C1180       C  0.90315056  0.72773234  0.13605117    -0.09400
C1181       C  0.90418554  0.71715668  0.18169049    -0.17100
C1182       C  0.89104749  0.70557497  0.19350178     0.25100
C1183       C  0.87655909  0.70523158  0.16054237    -0.18800
C1184       C  0.87559677  0.71563716  0.11483035    -0.07700
C1185       C  0.89278647  0.69324982  0.23686323    -0.14100
C1186       C  0.89395890  0.68218610  0.27083108    -0.13900
C1187       C  0.89504846  0.66843037  0.30988281     0.25000
C1188       C  0.88021957  0.66046022  0.32870325    -0.19300
C1189       C  0.88120043  0.64701464  0.36573751    -0.07700
C1190       C  0.89706566  0.64120379  0.38475310    -0.03800
C1191       C  0.91191881  0.64927517  0.36562959    -0.09100
C1192       C  0.91090362  0.66274471  0.32855736    -0.16700
H1193       H  0.91379463  0.73591125  0.12601095     0.11400
H1194       H  0.91551112  0.71756887  0.20659220     0.10700
H1195       H  0.86628147  0.69641342  0.16891952     0.10600
H1196       H  0.86465404  0.71450553  0.08844909     0.11100
H1197       H  0.86785404  0.66461602  0.31465298     0.11200
H1198       H  0.86949041  0.64115735  0.37943788     0.11200
H1199       H  0.92434172  0.64519339  0.37930836     0.11300
H1200       H  0.92251443  0.66870078  0.31437765     0.10100
loop_ 
_geom_bond_atom_site_label_1 
_geom_bond_atom_site_label_2 
_geom_bond_distance 
_geom_bond_site_symmetry_2 
_ccdc_geom_bond_type 
C1            C2   1.543       .  S
C1            C7   1.530   1_556  S
C1            C5   1.534       .  S
C1         C1157   1.532       .  S
C2            H9   1.081       .  S
C2            C3   1.373       .  D
C3            C4   1.558   1_556  S
C3         C1135   1.506   1_556  S
C4            C8   1.551       .  S
C4            C6   1.551   1_554  S
C4           H10   1.110       .  S
C5           H11   1.087       .  S
C5            C6   1.363       .  D
C6          C305   1.485   1_556  S
C7           H12   1.087       .  S
C7            C8   1.363       .  D
C8         C1179   1.489       .  S
O13         Ni21   1.932       .  S
O13          C23   1.285       .  A
O14         Ni21   1.934       .  S
O14          C24   1.285       .  A
O15         Ni21   1.925       .  S
O15          C25   1.283       .  A
O16         Ni21   1.925       .  S
O16          C26   1.283       .  A
O17         Ni22   1.917       .  S
O17          C26   1.282       .  A
O18         Ni22   1.917       .  S
O18          C25   1.282       .  A
O19         Ni22   1.925       .  S
O19          C24   1.283       .  A
O20         Ni22   1.925       .  S
O20          C23   1.283       .  A
Ni21        Ni22   2.383       .  S
C23        C1091   1.494       .  S
C24        C1190   1.496       .  S
C25        C1168   1.486       .  S
C26        C1124   1.485       .  S
C27          C28   1.538       .  S
C27          C33   1.532   1_554  S
C27          C31   1.530       .  S
C27        C1047   1.524       .  S
C28          H35   1.081       .  S
C28          C29   1.374       .  D
C29          C30   1.567   1_554  S
C29        C1025   1.512   1_554  S
C30          C34   1.548       .  S
C30          C32   1.553   1_556  S
C30          H36   1.110       .  S
C31          H37   1.087       .  S
C31          C32   1.357       .  D
C32         C289   1.482       .  S
C33          H38   1.087       .  S
C33          C34   1.364       .  D
C34        C1069   1.486       .  S
O39         Ni47   1.924       .  S
O39          C49   1.283       .  A
O40         Ni47   1.924       .  S
O40          C50   1.282       .  A
O41         Ni47   1.930       .  S
O41          C51   1.284       .  A
O42         Ni47   1.924       .  S
O42          C52   1.283       .  A
O43         Ni48   1.906       .  S
O43          C52   1.279       .  A
O44         Ni48   1.904       .  S
O44          C51   1.279       .  A
O45         Ni48   1.924       .  S
O45          C50   1.283       .  A
O46         Ni48   1.927       .  S
O46          C49   1.284       .  A
Ni47        Ni48   2.386       .  S
C49        C1080   1.491       .  S
C50         C992   1.483       .  S
C51        C1014   1.480       .  S
C52        C1058   1.480       .  S
O53         Ni61   1.925       .  S
O53          C63   1.283       .  A
O54         Ni61   1.924   1_554  S
O54          C64   1.283       .  A
O55         Ni61   1.926   1_554  S
O55          C65   1.283       .  A
O56         Ni61   1.928       .  S
O56          C66   1.284       .  A
O57         Ni62   1.910       .  S
O57          C66   1.280       .  A
O58         Ni62   1.915   1_554  S
O58          C65   1.281       .  A
O59         Ni62   1.924   1_554  S
O59          C64   1.283       .  A
O60         Ni62   1.933       .  S
O60          C63   1.284       .  A
Ni61        Ni62   2.385       .  S
C63        C1102   1.494       .  S
C64         C981   1.487       .  S
C65        C1113   1.483       .  S
C66        C1003   1.482       .  S
C67          C68   1.539       .  S
C67          C73   1.532       .  S
C67          C71   1.528       .  S
C67         C937   1.520       .  S
C68          H75   1.083       .  S
C68          C69   1.372       .  D
C69          C70   1.559   1_554  S
C69        C1146   1.499       .  S
C70          C74   1.549       .  S
C70          C72   1.548   1_556  S
C70          H76   1.111       .  S
C71          H77   1.087       .  S
C71          C72   1.355       .  D
C72         C317   1.475       .  S
C73          H78   1.086   1_554  S
C73          C74   1.365   1_554  D
C74         C959   1.489       .  S
O79         Ni87   1.923       .  S
O79          C89   1.283       .  A
O80         Ni87   1.926       .  S
O80          C90   1.283       .  A
O81         Ni87   1.926       .  S
O81          C91   1.283       .  A
O82         Ni87   1.920       .  S
O82          C92   1.282       .  A
O83         Ni88   1.904       .  S
O83          C92   1.279       .  A
O84         Ni88   1.903       .  S
O84          C91   1.279       .  A
O85         Ni88   1.924       .  S
O85          C90   1.283       .  A
O86         Ni88   1.925       .  S
O86          C89   1.283       .  A
Ni87        Ni88   2.386       .  S
C89         C970   1.489       .  S
C90         C904   1.484       .  S
C91         C926   1.477       .  S
C92         C948   1.476       .  S
C93          C94   1.542       .  S
C93          C99   1.529   1_556  S
C93          C97   1.530       .  S
C93         C849   1.533       .  S
C94         H101   1.081       .  S
C94          C95   1.373   1_556  D
C95          C96   1.566       .  S
C95         C827   1.514       .  S
C96         C100   1.561       .  S
C96          C98   1.558   1_554  S
C96         H102   1.110       .  S
C97         H103   1.087       .  S
C97          C98   1.362       .  D
C98         C275   1.491   1_556  S
C99         H104   1.087       .  S
C99         C100   1.366       .  D
C100        C882   1.501       .  S
O105       Ni113   1.934       .  S
O105        C115   1.285       .  A
O106       Ni113   1.936       .  S
O106        C116   1.285       .  A
O107       Ni113   1.927       .  S
O107        C117   1.284       .  A
O108       Ni113   1.927       .  S
O108        C118   1.284       .  A
O109       Ni114   1.916       .  S
O109        C118   1.281       .  A
O110       Ni114   1.911       .  S
O110        C117   1.280       .  A
O111       Ni114   1.934       .  S
O111        C116   1.285       .  A
O112       Ni114   1.931       .  S
O112        C115   1.284       .  A
Ni113      Ni114   2.383       .  S
C115        C783   1.496       .  S
C116        C871   1.502       .  S
C117        C860   1.484       .  S
C118        C805   1.486       .  S
O119       Ni127   1.929   1_556  S
O119        C129   1.283       .  A
O120       Ni127   1.928       .  S
O120        C130   1.283       .  A
O121       Ni127   1.925       .  S
O121        C131   1.283       .  A
O122       Ni127   1.926   1_556  S
O122        C132   1.284       .  A
O123       Ni128   1.906   1_556  S
O123        C132   1.279       .  A
O124       Ni128   1.914       .  S
O124        C131   1.280       .  A
O125       Ni128   1.925       .  S
O125        C130   1.283       .  A
O126       Ni128   1.930   1_556  S
O126        C129   1.283       .  A
Ni127      Ni128   2.384       .  S
C129        C794   1.492       .  S
C130        C893   1.490       .  S
C131        C816   1.483       .  S
C132        C915   1.479       .  S
C133        C134   1.541   1_565  S
C133        C139   1.527   1_556  S
C133        C137   1.527       .  S
C133        C750   1.525       .  S
C134        H141   1.081       .  S
C134        C135   1.375       .  D
C135        C136   1.563   1_546  S
C135       C1036   1.511   1_556  S
C136        C140   1.557       .  S
C136        C138   1.551   1_554  S
C136        H142   1.110       .  S
C137        H143   1.087       .  S
C137        C138   1.358       .  D
C138        C319   1.479   1_556  S
C139        H144   1.087       .  S
C139        C140   1.365       .  D
C140        C772   1.497       .  S
O145       Ni153   1.932       .  S
O145        C155   1.284       .  A
O146       Ni153   1.936       .  S
O146        C156   1.285       .  A
O147       Ni153   1.925       .  S
O147        C157   1.283       .  A
O148       Ni153   1.925       .  S
O148        C158   1.283       .  A
O149       Ni154   1.910       .  S
O149        C158   1.280       .  A
O150       Ni154   1.904       .  S
O150        C157   1.279       .  A
O151       Ni154   1.924       .  S
O151        C156   1.283       .  A
O152       Ni154   1.924       .  S
O152        C155   1.283       .  A
Ni153      Ni154   2.385       .  S
C155        C695   1.491       .  S
C156        C761   1.496       .  S
C157        C739   1.479       .  S
C158        C728   1.481       .  S
C159        C160   1.539       .  S
C159        C165   1.530   1_554  S
C159        C163   1.525       .  S
C159        C662   1.527       .  S
C160        H167   1.081       .  S
C160        C161   1.375       .  D
C161        C162   1.568   1_554  S
C161        C629   1.516   1_554  S
C162        C166   1.554       .  S
C162        C164   1.557   1_556  S
C162        H168   1.110       .  S
C163        H169   1.087   1_545  S
C163        C164   1.357       .  D
C164        C277   1.485   1_544  S
C165        H170   1.086       .  S
C165        C166   1.367       .  D
C166        C673   1.492       .  S
O171       Ni179   1.927       .  S
O171        C181   1.284   1_565  A
O172       Ni179   1.929       .  S
O172        C182   1.284       .  A
O173       Ni179   1.924       .  S
O173        C183   1.283       .  A
O174       Ni179   1.920       .  S
O174        C184   1.282   1_565  A
O175       Ni180   1.916       .  S
O175        C184   1.281       .  A
O176       Ni180   1.914       .  S
O176        C183   1.281   1_545  A
O177       Ni180   1.924       .  S
O177        C182   1.283   1_545  A
O178       Ni180   1.924       .  S
O178        C181   1.283       .  A
Ni179      Ni180   2.385   1_565  S
C181        C684   1.491       .  S
C182        C585   1.490       .  S
C183        C607   1.484       .  S
C184        C651   1.483       .  S
O185       Ni193   1.925   1_554  S
O185        C195   1.283       .  A
O186       Ni193   1.924       .  S
O186        C196   1.282       .  A
O187       Ni193   1.928       .  S
O187        C197   1.284       .  A
O188       Ni193   1.926   1_554  S
O188        C198   1.283       .  A
O189       Ni194   1.912       .  S
O189        C198   1.279       .  A
O190       Ni194   1.908   1_556  S
O190        C197   1.279       .  A
O191       Ni194   1.931   1_556  S
O191        C196   1.283       .  A
O192       Ni194   1.926       .  S
O192        C195   1.284       .  A
Ni193      Ni194   2.384   1_556  S
C195        C596   1.491       .  S
C196        C706   1.488       .  S
C197        C618   1.481       .  S
C198        C717   1.480       .  S
C199        C200   1.541       .  S
C199        C205   1.529   1_554  S
C199        C203   1.529   1_455  S
C199        C552   1.525       .  S
C200        H207   1.081       .  S
C200        C201   1.374       .  D
C201        C202   1.567   1_554  S
C201        C838   1.515       .  S
C202        C206   1.551       .  S
C202        C204   1.552   1_456  S
C202        H208   1.110   1_455  S
C203        H209   1.087       .  S
C203        C204   1.359       .  D
C204        C303   1.480       .  S
C205        H210   1.087       .  S
C205        C206   1.364       .  D
C206        C563   1.487       .  S
O211       Ni219   1.922       .  S
O211        C221   1.282       .  A
O212       Ni219   1.923       .  S
O212        C222   1.282       .  A
O213       Ni219   1.917       .  S
O213        C223   1.282       .  A
O214       Ni219   1.921       .  S
O214        C224   1.282       .  A
O215       Ni220   1.910       .  S
O215        C224   1.280       .  A
O216       Ni220   1.910   1_455  S
O216        C223   1.280   1_455  A
O217       Ni220   1.932   1_455  S
O217        C222   1.285   1_455  A
O218       Ni220   1.932       .  S
O218        C221   1.285       .  A
Ni219      Ni220   2.385       .  S
C221        C497   1.492       .  S
C222        C574   1.493       .  S
C223        C541   1.477       .  S
C224        C519   1.480       .  S
C225        C226   1.534       .  S
C225        C231   1.536   1_556  S
C225        C229   1.531       .  S
C225        C453   1.530       .  S
C226        H233   1.085       .  S
C226        C227   1.372   1_556  D
C227        C228   1.565       .  S
C227        C640   1.514   1_655  S
C228        C232   1.553       .  S
C228        C230   1.552       .  S
C228        H234   1.110       .  S
C229        H235   1.087       .  S
C229        C230   1.361   1_556  D
C230        C291   1.481       .  S
C231        H236   1.080       .  S
C231        C232   1.364       .  D
C232        C475   1.488       .  S
O237       Ni245   1.929       .  S
O237        C247   1.284       .  A
O238       Ni245   1.927       .  S
O238        C248   1.283       .  A
O239       Ni245   1.929       .  S
O239        C249   1.284       .  A
O240       Ni245   1.927       .  S
O240        C250   1.284       .  A
O241       Ni246   1.907       .  S
O241        C250   1.280       .  A
O242       Ni246   1.910       .  S
O242        C249   1.280       .  A
O243       Ni246   1.929       .  S
O243        C248   1.284       .  A
O244       Ni246   1.925       .  S
O244        C247   1.284       .  A
Ni245      Ni246   2.385       .  S
C247        C486   1.493       .  S
C248        C420   1.492       .  S
C249        C431   1.484       .  S
C250        C464   1.481       .  S
O251       Ni259   1.924       .  S
O251        C261   1.283       .  A
O252       Ni259   1.921   1_556  S
O252        C262   1.282       .  A
O253       Ni259   1.923   1_556  S
O253        C263   1.283       .  A
O254       Ni259   1.924       .  S
O254        C264   1.283       .  A
O255       Ni260   1.914       .  S
O255        C264   1.281       .  A
O256       Ni260   1.908   1_556  S
O256        C263   1.279       .  A
O257       Ni260   1.934   1_556  S
O257        C262   1.285       .  A
O258       Ni260   1.930       .  S
O258        C261   1.284       .  A
Ni259      Ni260   2.385       .  S
C261        C508   1.492       .  S
C262        C409   1.491       .  S
C263        C530   1.477       .  S
C264        C442   1.482       .  S
O265       Ni273   1.921       .  S
O265        C275   1.285   1_556  A
O266       Ni273   1.903       .  S
O266        C276   1.279   1_556  A
O267       Ni273   1.935       .  S
O267        C277   1.282       .  A
O268       Ni273   1.925       .  S
O268        C278   1.284   1_556  A
O269       Ni274   1.901       .  S
O269        C278   1.278       .  A
O270       Ni274   1.913       .  S
O270        C277   1.283   1_554  A
O271       Ni274   1.925       .  S
O271        C276   1.284       .  A
O272       Ni274   1.937       .  S
O272        C275   1.282       .  A
Ni273      Ni274   2.385   1_556  S
C276        C376   1.478       .  S
C278        C387   1.477       .  S
O279       Ni287   1.919       .  S
O279        C289   1.283       .  A
O280       Ni287   1.905       .  S
O280        C290   1.280   1_554  A
O281       Ni287   1.929       .  S
O281        C291   1.281       .  A
O282       Ni287   1.916       .  S
O282        C292   1.282   1_554  A
O283       Ni288   1.897       .  S
O283        C292   1.278       .  A
O284       Ni288   1.913       .  S
O284        C291   1.282   1_556  A
O285       Ni288   1.922       .  S
O285        C290   1.283       .  A
O286       Ni288   1.929       .  S
O286        C289   1.281   1_556  A
Ni287      Ni288   2.386   1_554  S
C290        C365   1.477       .  S
C292        C343   1.469       .  S
O293       Ni301   1.914       .  S
O293        C303   1.283       .  A
O294       Ni301   1.903       .  S
O294        C304   1.279       .  A
O295       Ni301   1.930       .  S
O295        C305   1.281       .  A
O296       Ni301   1.921       .  S
O296        C306   1.283       .  A
O297       Ni302   1.906       .  S
O297        C306   1.280   1_556  A
O298       Ni302   1.920       .  S
O298        C305   1.284   1_556  A
O299       Ni302   1.919       .  S
O299        C304   1.282   1_556  A
O300       Ni302   1.927       .  S
O300        C303   1.281   1_556  A
Ni301      Ni302   2.386   1_554  S
C304        C321   1.473       .  S
C306        C398   1.477       .  S
O307       Ni315   1.917       .  S
O307        C317   1.284       .  A
O308       Ni315   1.905       .  S
O308        C318   1.280   1_554  A
O309       Ni315   1.923       .  S
O309        C319   1.279       .  A
O310       Ni315   1.914       .  S
O310        C320   1.281       .  A
O311       Ni316   1.906       .  S
O311        C320   1.280   1_556  A
O312       Ni316   1.915       .  S
O312        C319   1.284   1_556  A
O313       Ni316   1.908       .  S
O313        C318   1.280       .  A
O314       Ni316   1.916       .  S
O314        C317   1.278   1_556  A
Ni315      Ni316   2.389   1_554  S
C318        C354   1.469       .  S
C320        C332   1.473       .  S
C321        C322   1.407       .  A
C321        C326   1.406   1_554  A
C322        C323   1.393       .  A
C322        H335   1.083       .  S
C323        C324   1.397       .  A
C323        H336   1.084       .  S
C324        C325   1.399   1_554  A
C324        C327   1.431       .  S
C325        C326   1.397       .  A
C325        H337   1.083       .  S
C326        H338   1.083       .  S
C327        C328   1.200       .  T
C328        C329   1.431       .  S
C329        C330   1.397   1_554  A
C329        C334   1.398       .  A
C330        C331   1.394       .  A
C330        H339   1.084       .  S
C331        C332   1.406   1_556  A
C331        H340   1.083       .  S
C332        C333   1.406       .  A
C333        C334   1.396       .  A
C333        H341   1.083       .  S
C334        H342   1.083       .  S
C343        C344   1.404   1_556  A
C343        C348   1.408       .  A
C344        C345   1.393       .  A
C344        H357   1.083       .  S
C345        C346   1.398   1_554  A
C345        H358   1.084       .  S
C346        C347   1.396       .  A
C346        C349   1.426       .  S
C347        C348   1.393       .  A
C347        H359   1.084       .  S
C348        H360   1.083       .  S
C349        C350   1.197       .  T
C350        C351   1.425       .  S
C351        C352   1.397       .  A
C351        C356   1.397   1_556  A
C352        C353   1.394   1_545  A
C352        H361   1.084       .  S
C353        C354   1.407       .  A
C353        H362   1.083       .  S
C354        C355   1.404   1_556  A
C355        C356   1.391   1_565  A
C355        H363   1.083       .  S
C356        H364   1.084       .  S
C365        C366   1.406       .  A
C365        C370   1.407   1_556  A
C366        C367   1.399       .  A
C366        H379   1.083       .  S
C367        C368   1.400       .  A
C367        H380   1.083       .  S
C368        C369   1.397   1_556  A
C368        C371   1.435   1_655  S
C369        C370   1.394       .  A
C369        H381   1.084       .  S
C370        H382   1.083       .  S
C371        C372   1.203       .  T
C372        C373   1.435       .  S
C373        C374   1.400   1_556  A
C373        C378   1.397       .  A
C374        C375   1.398       .  A
C374        H383   1.083       .  S
C375        C376   1.406   1_545  A
C375        H384   1.083   1_545  S
C376        C377   1.408   1_564  A
C377        C378   1.395       .  A
C377        H385   1.083   1_545  S
C378        H386   1.084       .  S
C387        C388   1.405   1_554  A
C387        C392   1.408       .  A
C388        C389   1.398       .  A
C388        H401   1.083       .  S
C389        C390   1.400   1_556  A
C389        H402   1.083       .  S
C390        C391   1.397       .  A
C390        C393   1.434       .  S
C391        C392   1.395       .  A
C391        H403   1.084       .  S
C392        H404   1.083       .  S
C393        C394   1.203       .  T
C394        C395   1.434   1_455  S
C395        C396   1.399       .  A
C395        C400   1.397   1_554  A
C396        C397   1.398       .  A
C396        H405   1.083   1_655  S
C397        C398   1.407       .  A
C397        H406   1.083       .  S
C398        C399   1.407   1_554  A
C399        C400   1.395       .  A
C399        H407   1.083       .  S
C400        H408   1.084       .  S
C409        C410   1.409       .  A
C409        C414   1.408       .  A
C410        C411   1.402       .  A
C410        H423   1.083       .  S
C411        C412   1.401       .  A
C411        H424   1.084       .  S
C412        C413   1.403       .  A
C412        C415   1.453       .  S
C413        C414   1.405       .  A
C413        H425   1.083       .  S
C414        H426   1.083       .  S
C415        C416   1.214       .  T
C416        C417   1.453       .  S
C417        C418   1.402       .  A
C417        C422   1.402       .  A
C418        C419   1.404       .  A
C418        H427   1.083       .  S
C419        C420   1.409       .  A
C419        H428   1.083       .  S
C420        C421   1.409       .  A
C421        C422   1.404       .  A
C421        H429   1.083       .  S
C422        H430   1.083       .  S
C431        C432   1.407       .  A
C431        C436   1.408       .  A
C432        C433   1.403       .  A
C432        H445   1.082       .  S
C433        C434   1.402       .  A
C433        H446   1.083       .  S
C434        C435   1.398       .  A
C434        C437   1.443       .  S
C435        C436   1.396       .  A
C435        H447   1.084       .  S
C436        H448   1.083       .  S
C437        C438   1.208       .  T
C438        C439   1.443       .  S
C439        C440   1.401       .  A
C439        C444   1.398       .  A
C440        C441   1.401       .  A
C440        H449   1.084       .  S
C441        C442   1.407       .  A
C441        H450   1.083       .  S
C442        C443   1.408       .  A
C443        C444   1.398       .  A
C443        H451   1.083       .  S
C444        H452   1.083       .  S
C453        C454   1.411       .  A
C453        C458   1.413       .  A
C454        C455   1.398       .  A
C454        H467   1.083       .  S
C455        C456   1.397       .  A
C455        H468   1.083       .  S
C456        C457   1.397       .  A
C456        C459   1.439       .  S
C457        C458   1.398       .  A
C457        H469   1.084       .  S
C458        H470   1.074       .  S
C459        C460   1.206       .  T
C460        C461   1.439       .  S
C461        C462   1.401       .  A
C461        C466   1.398       .  A
C462        C463   1.401       .  A
C462        H471   1.083       .  S
C463        C464   1.407       .  A
C463        H472   1.083       .  S
C464        C465   1.408       .  A
C465        C466   1.396       .  A
C465        H473   1.083       .  S
C466        H474   1.084       .  S
C475        C476   1.406       .  A
C475        C480   1.406       .  A
C476        C477   1.408       .  A
C476        H489   1.083       .  S
C477        C478   1.405       .  A
C477        H490   1.083       .  S
C478        C479   1.401       .  A
C478        C481   1.453       .  S
C479        C480   1.400       .  A
C479        H491   1.083       .  S
C480        H492   1.084       .  S
C481        C482   1.214       .  T
C482        C483   1.453       .  S
C483        C484   1.401       .  A
C483        C488   1.403       .  A
C484        C485   1.401       .  A
C484        H493   1.084       .  S
C485        C486   1.408       .  A
C485        H494   1.083       .  S
C486        C487   1.410       .  A
C487        C488   1.406       .  A
C487        H495   1.083       .  S
C488        H496   1.083       .  S
C497        C498   1.410       .  A
C497        C502   1.408       .  A
C498        C499   1.403       .  A
C498        H511   1.083       .  S
C499        C500   1.401       .  A
C499        H512   1.083       .  S
C500        C501   1.403       .  A
C500        C503   1.452       .  S
C501        C502   1.404       .  A
C501        H513   1.083   1_655  S
C502        H514   1.083   1_655  S
C503        C504   1.213       .  T
C504        C505   1.452       .  S
C505        C506   1.401       .  A
C505        C510   1.403       .  A
C506        C507   1.402       .  A
C506        H515   1.083       .  S
C507        C508   1.409       .  A
C507        H516   1.083       .  S
C508        C509   1.408       .  A
C509        C510   1.404       .  A
C509        H517   1.082       .  S
C510        H518   1.083       .  S
C519        C520   1.407       .  A
C519        C524   1.407       .  A
C520        C521   1.396       .  A
C520        H533   1.083   1_655  S
C521        C522   1.398       .  A
C521        H534   1.083       .  S
C522        C523   1.400       .  A
C522        C525   1.438       .  S
C523        C524   1.400       .  A
C523        H535   1.083       .  S
C524        H536   1.083       .  S
C525        C526   1.205       .  T
C526        C527   1.438       .  S
C527        C528   1.398       .  A
C527        C532   1.400       .  A
C528        C529   1.397       .  A
C528        H537   1.084       .  S
C529        C530   1.407       .  A
C529        H538   1.083       .  S
C530        C531   1.405       .  A
C531        C532   1.398       .  A
C531        H539   1.083       .  S
C532        H540   1.084       .  S
C541        C542   1.408   1_655  A
C541        C546   1.406       .  A
C542        C543   1.397       .  A
C542        H555   1.083       .  S
C543        C544   1.398   1_455  A
C543        H556   1.084       .  S
C544        C545   1.399       .  A
C544        C547   1.436   1_655  S
C545        C546   1.397       .  A
C545        H557   1.083       .  S
C546        H558   1.083       .  S
C547        C548   1.204       .  T
C548        C549   1.436       .  S
C549        C550   1.399       .  A
C549        C554   1.395   1_455  A
C550        C551   1.399       .  A
C550        H559   1.083       .  S
C551        C552   1.410       .  A
C551        H560   1.077       .  S
C552        C553   1.412   1_455  A
C553        C554   1.394       .  A
C553        H561   1.083       .  S
C554        H562   1.084       .  S
C563        C564   1.405   1_455  A
C563        C568   1.407       .  A
C564        C565   1.407       .  A
C564        H577   1.083       .  S
C565        C566   1.405   1_655  A
C565        H578   1.083       .  S
C566        C567   1.400       .  A
C566        C569   1.452   1_455  S
C567        C568   1.399       .  A
C567        H579   1.084       .  S
C568        H580   1.083       .  S
C569        C570   1.213       .  T
C570        C571   1.452       .  S
C571        C572   1.403   1_655  A
C571        C576   1.401       .  A
C572        C573   1.404       .  A
C572        H581   1.083       .  S
C573        C574   1.409   1_455  A
C573        H582   1.083       .  S
C574        C575   1.410       .  A
C575        C576   1.403       .  A
C575        H583   1.083       .  S
C576        H584   1.083       .  S
C585        C586   1.409   1_565  A
C585        C590   1.408       .  A
C586        C587   1.403       .  A
C586        H599   1.083       .  S
C587        C588   1.401   1_545  A
C587        H600   1.083       .  S
C588        C589   1.401       .  A
C588        C591   1.450       .  S
C589        C590   1.403       .  A
C589        H601   1.083       .  S
C590        H602   1.083       .  S
C591        C592   1.212       .  T
C592        C593   1.450       .  S
C593        C594   1.401       .  A
C593        C598   1.402   1_565  A
C594        C595   1.403       .  A
C594        H603   1.083       .  S
C595        C596   1.408       .  A
C595        H604   1.082       .  S
C596        C597   1.409   1_565  A
C597        C598   1.403       .  A
C597        H605   1.083       .  S
C598        H606   1.083       .  S
C607        C608   1.408       .  A
C607        C612   1.408   1_565  A
C608        C609   1.402       .  A
C608        H621   1.083       .  S
C609        C610   1.401       .  A
C609        H622   1.083       .  S
C610        C611   1.398   1_565  A
C610        C613   1.441       .  S
C611        C612   1.397       .  A
C611        H623   1.084       .  S
C612        H624   1.083       .  S
C613        C614   1.207       .  T
C614        C615   1.441       .  S
C615        C616   1.401       .  A
C615        C620   1.398       .  A
C616        C617   1.400       .  A
C616        H625   1.084   1_565  S
C617        C618   1.406       .  A
C617        H626   1.083   1_565  S
C618        C619   1.408       .  A
C619        C620   1.398       .  A
C619        H627   1.083       .  S
C620        H628   1.084       .  S
C629        C630   1.414   1_556  A
C629        C634   1.411       .  A
C630        C631   1.404       .  A
C630        H643   1.082       .  S
C631        C632   1.400   1_554  A
C631        H644   1.084       .  S
C632        C633   1.410       .  A
C632        C635   1.471       .  S
C633        C634   1.417       .  A
C633        H645   1.081       .  S
C634        H646   1.083       .  S
C635        C636   1.225   1_556  T
C636        C637   1.471       .  S
C637        C638   1.409       .  A
C637        C642   1.401   1_554  A
C638        C639   1.416   1_455  A
C638        H647   1.081       .  S
C639        C640   1.410   1_655  A
C639        H648   1.083       .  S
C640        C641   1.413   1_554  A
C641        C642   1.404       .  A
C641        H649   1.082       .  S
C642        H650   1.083       .  S
C651        C652   1.408   1_545  A
C651        C656   1.408       .  A
C652        C653   1.400   1_565  A
C652        H665   1.083       .  S
C653        C654   1.401       .  A
C653        H666   1.083   1_545  S
C654        C655   1.399       .  A
C654        C657   1.441       .  S
C655        C656   1.398       .  A
C655        H667   1.084       .  S
C656        H668   1.083       .  S
C657        C658   1.207       .  T
C658        C659   1.441       .  S
C659        C660   1.401       .  A
C659        C664   1.395       .  A
C660        C661   1.403       .  A
C660        H669   1.083       .  S
C661        C662   1.411       .  A
C661        H670   1.078       .  S
C662        C663   1.411       .  A
C663        C664   1.394       .  A
C663        H671   1.083       .  S
C664        H672   1.084       .  S
C673        C674   1.409       .  A
C673        C678   1.406       .  A
C674        C675   1.399       .  A
C674        H687   1.083       .  S
C675        C676   1.399       .  A
C675        H688   1.084       .  S
C676        C677   1.405       .  A
C676        C679   1.451       .  S
C677        C678   1.407       .  A
C677        H689   1.083   1_545  S
C678        H690   1.083       .  S
C679        C680   1.213       .  T
C680        C681   1.451       .  S
C681        C682   1.402   1_545  A
C681        C686   1.402       .  A
C682        C683   1.403       .  A
C682        H691   1.083       .  S
C683        C684   1.409   1_565  A
C683        H692   1.083       .  S
C684        C685   1.409       .  A
C685        C686   1.402       .  A
C685        H693   1.083       .  S
C686        H694   1.084       .  S
C695        C696   1.408       .  A
C695        C700   1.408       .  A
C696        C697   1.402       .  A
C696        H709   1.083       .  S
C697        C698   1.401       .  A
C697        H710   1.083       .  S
C698        C699   1.403       .  A
C698        C701   1.453       .  S
C699        C700   1.406       .  A
C699        H711   1.083       .  S
C700        H712   1.083       .  S
C701        C702   1.214       .  T
C702        C703   1.453       .  S
C703        C704   1.403       .  A
C703        C708   1.402       .  A
C704        C705   1.405       .  A
C704        H713   1.083       .  S
C705        C706   1.408       .  A
C705        H714   1.083       .  S
C706        C707   1.407       .  A
C707        C708   1.403       .  A
C707        H715   1.083       .  S
C708        H716   1.083       .  S
C717        C718   1.405       .  A
C717        C722   1.408       .  A
C718        C719   1.400       .  A
C718        H731   1.083   1_565  S
C719        C720   1.401       .  A
C719        H732   1.083       .  S
C720        C721   1.399       .  A
C720        C723   1.441       .  S
C721        C722   1.398       .  A
C721        H733   1.084       .  S
C722        H734   1.083       .  S
C723        C724   1.207       .  T
C724        C725   1.441       .  S
C725        C726   1.401       .  A
C725        C730   1.399       .  A
C726        C727   1.401       .  A
C726        H735   1.083       .  S
C727        C728   1.406       .  A
C727        H736   1.083       .  S
C728        C729   1.407       .  A
C729        C730   1.397       .  A
C729        H737   1.083       .  S
C730        H738   1.084       .  S
C739        C740   1.408       .  A
C739        C744   1.407       .  A
C740        C741   1.393       .  A
C740        H753   1.083   1_565  S
C741        C742   1.396       .  A
C741        H754   1.084   1_565  S
C742        C743   1.402       .  A
C742        C745   1.436       .  S
C743        C744   1.401       .  A
C743        H755   1.083       .  S
C744        H756   1.083       .  S
C745        C746   1.204       .  T
C746        C747   1.436       .  S
C747        C748   1.394       .  A
C747        C752   1.400       .  A
C748        C749   1.392       .  A
C748        H757   1.084       .  S
C749        C750   1.411       .  A
C749        H758   1.083       .  S
C750        C751   1.411   1_565  A
C751        C752   1.401   1_545  A
C751        H759   1.078       .  S
C752        H760   1.084   1_565  S
C761        C762   1.410       .  A
C761        C766   1.409       .  A
C762        C763   1.408       .  A
C762        H775   1.083       .  S
C763        C764   1.405       .  A
C763        H776   1.083       .  S
C764        C765   1.401       .  A
C764        C767   1.456       .  S
C765        C766   1.402       .  A
C765        H777   1.084   1_565  S
C766        H778   1.083   1_565  S
C767        C768   1.216       .  T
C768        C769   1.456       .  S
C769        C770   1.399       .  A
C769        C774   1.407       .  A
C770        C771   1.399       .  A
C770        H779   1.084   1_565  S
C771        C772   1.410       .  A
C771        H780   1.083   1_565  S
C772        C773   1.407       .  A
C773        C774   1.411       .  A
C773        H781   1.083       .  S
C774        H782   1.083       .  S
C783        C784   1.409       .  A
C783        C788   1.409       .  A
C784        C785   1.406       .  A
C784        H797   1.083       .  S
C785        C786   1.403       .  A
C785        H798   1.083       .  S
C786        C787   1.403       .  A
C786        C789   1.457       .  S
C787        C788   1.405       .  A
C787        H799   1.084       .  S
C788        H800   1.083       .  S
C789        C790   1.216       .  T
C790        C791   1.457       .  S
C791        C792   1.403       .  A
C791        C796   1.403       .  A
C792        C793   1.405       .  A
C792        H801   1.083       .  S
C793        C794   1.408       .  A
C793        H802   1.083       .  S
C794        C795   1.409       .  A
C795        C796   1.405       .  A
C795        H803   1.083       .  S
C796        H804   1.083       .  S
C805        C806   1.407       .  A
C805        C810   1.408       .  A
C806        C807   1.402       .  A
C806        H819   1.081       .  S
C807        C808   1.401       .  A
C807        H820   1.084       .  S
C808        C809   1.399       .  A
C808        C811   1.444       .  S
C809        C810   1.399       .  A
C809        H821   1.083       .  S
C810        H822   1.083       .  S
C811        C812   1.209       .  T
C812        C813   1.444       .  S
C813        C814   1.401       .  A
C813        C818   1.399       .  A
C814        C815   1.401       .  A
C814        H823   1.084       .  S
C815        C816   1.407       .  A
C815        H824   1.083       .  S
C816        C817   1.408       .  A
C817        C818   1.399       .  A
C817        H825   1.083       .  S
C818        H826   1.083       .  S
C827        C828   1.413       .  A
C827        C832   1.410       .  A
C828        C829   1.406       .  A
C828        H841   1.083   1_554  S
C829        C830   1.402       .  A
C829        H842   1.084   1_554  S
C830        C831   1.410       .  A
C830        C833   1.472       .  S
C831        C832   1.417       .  A
C831        H843   1.082       .  S
C832        H844   1.083       .  S
C833        C834   1.225       .  T
C834        C835   1.472       .  S
C835        C836   1.410   1_554  A
C835        C840   1.402       .  A
C836        C837   1.417       .  A
C836        H845   1.082       .  S
C837        C838   1.410   1_556  A
C837        H846   1.083       .  S
C838        C839   1.414       .  A
C839        C840   1.405       .  A
C839        H847   1.082       .  S
C840        H848   1.084       .  S
C849        C850   1.413       .  A
C849        C854   1.411       .  A
C850        C851   1.403       .  A
C850        H863   1.076       .  S
C851        C852   1.400       .  A
C851        H864   1.084       .  S
C852        C853   1.397       .  A
C852        C855   1.443       .  S
C853        C854   1.396       .  A
C853        H865   1.083       .  S
C854        H866   1.083       .  S
C855        C856   1.208       .  T
C856        C857   1.443       .  S
C857        C858   1.402       .  A
C857        C862   1.398       .  A
C858        C859   1.402       .  A
C858        H867   1.083       .  S
C859        C860   1.408       .  A
C859        H868   1.083       .  S
C860        C861   1.408       .  A
C861        C862   1.397       .  A
C861        H869   1.083       .  S
C862        H870   1.084       .  S
C871        C872   1.411       .  A
C871        C876   1.410       .  A
C872        C873   1.409       .  A
C872        H885   1.083       .  S
C873        C874   1.405       .  A
C873        H886   1.083       .  S
C874        C875   1.404       .  A
C874        C877   1.464       .  S
C875        C876   1.407       .  A
C875        H887   1.083       .  S
C876        H888   1.083       .  S
C877        C878   1.220       .  T
C878        C879   1.463       .  S
C879        C880   1.401       .  A
C879        C884   1.409       .  A
C880        C881   1.402       .  A
C880        H889   1.084       .  S
C881        C882   1.410       .  A
C881        H890   1.083       .  S
C882        C883   1.407       .  A
C883        C884   1.413       .  A
C883        H891   1.083       .  S
C884        H892   1.083       .  S
C893        C894   1.408       .  A
C893        C898   1.408       .  A
C894        C895   1.403       .  A
C894        H907   1.083       .  S
C895        C896   1.402       .  A
C895        H908   1.084       .  S
C896        C897   1.401       .  A
C896        C899   1.450       .  S
C897        C898   1.403       .  A
C897        H909   1.083       .  S
C898        H910   1.083       .  S
C899        C900   1.212       .  T
C900        C901   1.450       .  S
C901        C902   1.403       .  A
C901        C906   1.401       .  A
C902        C903   1.404       .  A
C902        H911   1.083       .  S
C903        C904   1.407       .  A
C903        H912   1.083       .  S
C904        C905   1.406       .  A
C905        C906   1.401       .  A
C905        H913   1.083       .  S
C906        H914   1.083       .  S
C915        C916   1.406       .  A
C915        C920   1.408       .  A
C916        C917   1.400       .  A
C916        H929   1.083       .  S
C917        C918   1.401       .  A
C917        H930   1.084       .  S
C918        C919   1.397       .  A
C918        C921   1.437       .  S
C919        C920   1.396       .  A
C919        H931   1.083       .  S
C920        H932   1.083       .  S
C921        C922   1.204       .  T
C922        C923   1.437       .  S
C923        C924   1.401       .  A
C923        C928   1.396       .  A
C924        C925   1.401       .  A
C924        H933   1.083       .  S
C925        C926   1.406       .  A
C925        H934   1.083       .  S
C926        C927   1.407       .  A
C927        C928   1.393       .  A
C927        H935   1.083       .  S
C928        H936   1.084       .  S
C937        C938   1.411       .  A
C937        C942   1.410       .  A
C938        C939   1.390       .  A
C938        H951   1.084       .  S
C939        C940   1.394       .  A
C939        H952   1.084       .  S
C940        C941   1.400       .  A
C940        C943   1.433       .  S
C941        C942   1.401       .  A
C941        H953   1.083       .  S
C942        H954   1.078       .  S
C943        C944   1.202       .  T
C944        C945   1.433       .  S
C945        C946   1.396       .  A
C945        C950   1.401       .  A
C946        C947   1.394       .  A
C946        H955   1.084       .  S
C947        C948   1.408       .  A
C947        H956   1.083       .  S
C948        C949   1.406       .  A
C949        C950   1.398       .  A
C949        H957   1.083       .  S
C950        H958   1.083       .  S
C959        C960   1.408       .  A
C959        C964   1.406       .  A
C960        C961   1.398       .  A
C960        H973   1.083       .  S
C961        C962   1.399       .  A
C961        H974   1.083       .  S
C962        C963   1.404       .  A
C962        C965   1.448       .  S
C963        C964   1.406       .  A
C963        H975   1.083       .  S
C964        H976   1.083       .  S
C965        C966   1.211       .  T
C966        C967   1.449       .  S
C967        C968   1.401       .  A
C967        C972   1.401       .  A
C968        C969   1.402       .  A
C968        H977   1.083       .  S
C969        C970   1.409       .  A
C969        H978   1.083       .  S
C970        C971   1.409       .  A
C971        C972   1.402       .  A
C971        H979   1.083       .  S
C972        H980   1.084       .  S
C981        C982   1.408       .  A
C981        C986   1.407       .  A
C982        C983   1.402       .  A
C982        H995   1.083       .  S
C983        C984   1.402       .  A
C983        H996   1.083       .  S
C984        C985   1.401       .  A
C984        C987   1.448       .  S
C985        C986   1.402       .  A
C985        H997   1.084       .  S
C986        H998   1.083       .  S
C987        C988   1.211       .  T
C988        C989   1.448       .  S
C989        C990   1.402       .  A
C989        C994   1.402       .  A
C990        C991   1.402       .  A
C990        H999   1.084       .  S
C991        C992   1.407       .  A
C991       H1000   1.083       .  S
C992        C993   1.406       .  A
C993        C994   1.402       .  A
C993       H1001   1.083       .  S
C994       H1002   1.083       .  S
C1003      C1004   1.406       .  A
C1003      C1008   1.408       .  A
C1004      C1005   1.400       .  A
C1004      H1017   1.083       .  S
C1005      C1006   1.402       .  A
C1005      H1018   1.084       .  S
C1006      C1007   1.398       .  A
C1006      C1009   1.441       .  S
C1007      C1008   1.398       .  A
C1007      H1019   1.084       .  S
C1008      H1020   1.083       .  S
C1009      C1010   1.207       .  T
C1010      C1011   1.441       .  S
C1011      C1012   1.403       .  A
C1011      C1016   1.397       .  A
C1012      C1013   1.404       .  A
C1012      H1021   1.083       .  S
C1013      C1014   1.407       .  A
C1013      H1022   1.083       .  S
C1014      C1015   1.407       .  A
C1015      C1016   1.394       .  A
C1015      H1023   1.083       .  S
C1016      H1024   1.084       .  S
C1025      C1026   1.414   1_556  A
C1025      C1030   1.409       .  A
C1026      C1027   1.403       .  A
C1026      H1039   1.082       .  S
C1027      C1028   1.400   1_554  A
C1027      H1040   1.084       .  S
C1028      C1029   1.408       .  A
C1028      C1031   1.467       .  S
C1029      C1030   1.415       .  A
C1029      H1041   1.080       .  S
C1030      H1042   1.083       .  S
C1031      C1032   1.222   1_556  T
C1032      C1033   1.466       .  S
C1033      C1034   1.408       .  A
C1033      C1038   1.401   1_554  A
C1034      C1035   1.414       .  A
C1034      H1043   1.081       .  S
C1035      C1036   1.410       .  A
C1035      H1044   1.083       .  S
C1036      C1037   1.412   1_554  A
C1037      C1038   1.404       .  A
C1037      H1045   1.082       .  S
C1038      H1046   1.084       .  S
C1047      C1048   1.411       .  A
C1047      C1052   1.411       .  A
C1048      C1049   1.392       .  A
C1048      H1061   1.083       .  S
C1049      C1050   1.394       .  A
C1049      H1062   1.084       .  S
C1050      C1051   1.400       .  A
C1050      C1053   1.436       .  S
C1051      C1052   1.401       .  A
C1051      H1063   1.084       .  S
C1052      H1064   1.078       .  S
C1053      C1054   1.204       .  T
C1054      C1055   1.437       .  S
C1055      C1056   1.401       .  A
C1055      C1060   1.397       .  A
C1056      C1057   1.399       .  A
C1056      H1065   1.084       .  S
C1057      C1058   1.406       .  A
C1057      H1066   1.083       .  S
C1058      C1059   1.409       .  A
C1059      C1060   1.395       .  A
C1059      H1067   1.083       .  S
C1060      H1068   1.084       .  S
C1069      C1070   1.405       .  A
C1069      C1074   1.406       .  A
C1070      C1071   1.406       .  A
C1070      H1083   1.083       .  S
C1071      C1072   1.404       .  A
C1071      H1084   1.083       .  S
C1072      C1073   1.400       .  A
C1072      C1075   1.450       .  S
C1073      C1074   1.399       .  A
C1073      H1085   1.084       .  S
C1074      H1086   1.083       .  S
C1075      C1076   1.212       .  T
C1076      C1077   1.450       .  S
C1077      C1078   1.402       .  A
C1077      C1082   1.402       .  A
C1078      C1079   1.402       .  A
C1078      H1087   1.084       .  S
C1079      C1080   1.408       .  A
C1079      H1088   1.083       .  S
C1080      C1081   1.410       .  A
C1081      C1082   1.403       .  A
C1081      H1089   1.083       .  S
C1082      H1090   1.083       .  S
C1091      C1092   1.409       .  A
C1091      C1096   1.409       .  A
C1092      C1093   1.406       .  A
C1092      H1105   1.082       .  S
C1093      C1094   1.403       .  A
C1093      H1106   1.083       .  S
C1094      C1095   1.402       .  A
C1094      C1097   1.454       .  S
C1095      C1096   1.403       .  A
C1095      H1107   1.083       .  S
C1096      H1108   1.083       .  S
C1097      C1098   1.215       .  T
C1098      C1099   1.454       .  S
C1099      C1100   1.402       .  A
C1099      C1104   1.402       .  A
C1100      C1101   1.404       .  A
C1100      H1109   1.083       .  S
C1101      C1102   1.410       .  A
C1101      H1110   1.083       .  S
C1102      C1103   1.409       .  A
C1103      C1104   1.405       .  A
C1103      H1111   1.083       .  S
C1104      H1112   1.083       .  S
C1113      C1114   1.408       .  A
C1113      C1118   1.407       .  A
C1114      C1115   1.399       .  A
C1114      H1127   1.083       .  S
C1115      C1116   1.399       .  A
C1115      H1128   1.083       .  S
C1116      C1117   1.402       .  A
C1116      C1119   1.444       .  S
C1117      C1118   1.402       .  A
C1117      H1129   1.084       .  S
C1118      H1130   1.083       .  S
C1119      C1120   1.209       .  T
C1120      C1121   1.444       .  S
C1121      C1122   1.399       .  A
C1121      C1126   1.402       .  A
C1122      C1123   1.399       .  A
C1122      H1131   1.083       .  S
C1123      C1124   1.408       .  A
C1123      H1132   1.083       .  S
C1124      C1125   1.408       .  A
C1125      C1126   1.402       .  A
C1125      H1133   1.082       .  S
C1126      H1134   1.084       .  S
C1135      C1136   1.409       .  A
C1135      C1140   1.411   1_554  A
C1136      C1137   1.412       .  A
C1136      H1149   1.083       .  S
C1137      C1138   1.407       .  A
C1137      H1150   1.082       .  S
C1138      C1139   1.401   1_554  A
C1138      C1141   1.462       .  S
C1139      C1140   1.403       .  A
C1139      H1151   1.084       .  S
C1140      H1152   1.082       .  S
C1141      C1142   1.220       .  T
C1142      C1143   1.463       .  S
C1143      C1144   1.402       .  A
C1143      C1148   1.408   1_554  A
C1144      C1145   1.403       .  A
C1144      H1153   1.084       .  S
C1145      C1146   1.408       .  A
C1145      H1154   1.083       .  S
C1146      C1147   1.408       .  A
C1147      C1148   1.412   1_554  A
C1147      H1155   1.083   1_554  S
C1148      H1156   1.082       .  S
C1157      C1158   1.411       .  A
C1157      C1162   1.413       .  A
C1158      C1159   1.397       .  A
C1158      H1171   1.083       .  S
C1159      C1160   1.397       .  A
C1159      H1172   1.083       .  S
C1160      C1161   1.400       .  A
C1160      C1163   1.445       .  S
C1161      C1162   1.403       .  A
C1161      H1173   1.084       .  S
C1162      H1174   1.077       .  S
C1163      C1164   1.209       .  T
C1164      C1165   1.445       .  S
C1165      C1166   1.399       .  A
C1165      C1170   1.402       .  A
C1166      C1167   1.399       .  A
C1166      H1175   1.084       .  S
C1167      C1168   1.408       .  A
C1167      H1176   1.083       .  S
C1168      C1169   1.408       .  A
C1169      C1170   1.402       .  A
C1169      H1177   1.083       .  S
C1170      H1178   1.083       .  S
C1179      C1180   1.405       .  A
C1179      C1184   1.407       .  A
C1180      C1181   1.408       .  A
C1180      H1193   1.083       .  S
C1181      C1182   1.406       .  A
C1181      H1194   1.083       .  S
C1182      C1183   1.401       .  A
C1182      C1185   1.455       .  S
C1183      C1184   1.401       .  A
C1183      H1195   1.083       .  S
C1184      H1196   1.084       .  S
C1185      C1186   1.215       .  T
C1186      C1187   1.455       .  S
C1187      C1188   1.402       .  A
C1187      C1192   1.403       .  A
C1188      C1189   1.404       .  A
C1188      H1197   1.083       .  S
C1189      C1190   1.410       .  A
C1189      H1198   1.083       .  S
C1190      C1191   1.410       .  A
C1191      C1192   1.406       .  A
C1191      H1199   1.083       .  S
C1192      H1200   1.083       .  S
