geometry optimzed in LAMMPS
_audit_creation_date              2020-11-30 
_audit_creation_method            'lammps2cif' 
_symmetry_space_group_name_H-M    'P1' 
_symmetry_Int_Tables_number       1 
_symmetry_cell_setting            triclinic 
loop_ 
_symmetry_equiv_pos_as_xyz 
  x,y,z 
_cell_length_a                    64.56274517 
_cell_length_b                    65.05603728339689 
_cell_length_c                    39.00686740187018 
_cell_angle_alpha                 86.08021491187779 
_cell_angle_beta                  91.17843420194863 
_cell_angle_gamma                 119.45754650598168 
loop_ 
_atom_site_label 
_atom_site_type_symbol 
_atom_site_fract_x 
_atom_site_fract_y 
_atom_site_fract_z 
_atom_site_charge 
Zr1        Zr  0.81382734  0.33727596  0.17804883     2.17500
O2          O  0.78521069  0.31020965  0.22189905    -0.51600
O3          O  0.80035008  0.36660011  0.17649160    -0.74800
O4          O  0.82656785  0.34821000  0.23657939    -0.81500
O5          O  0.77117091  0.30881459  0.10536342    -0.83300
O6          O  0.86599087  0.36034960  0.23836491    -0.78900
O7          O  0.77289790  0.31439369  0.16226485    -0.90600
O8          O  0.82544376  0.39807299  0.14097307    -0.76500
O9          O  0.85142775  0.37234873  0.17363060    -0.86000
O10         O  0.81616958  0.35429445  0.12125833    -0.85700
O11         O  0.84196996  0.32334187  0.18745735    -0.72400
O12         O  0.80972274  0.30760899  0.14053033    -0.84600
Zr13       Zr  0.87947015  0.34804878  0.08673367     2.26400
Zr14       Zr  0.87953654  0.35878538  0.18166859     2.06300
Zr15       Zr  0.81212984  0.32519257  0.08403758     2.10000
Zr16       Zr  0.85415462  0.38917307  0.11674619     1.78800
O17         O  0.79207369  0.28560671  0.06332211    -0.93400
O18         O  0.87835590  0.42391582  0.14880545    -0.41200
O19         O  0.85018079  0.36042084  0.07832090    -0.77800
O20         O  0.88395887  0.37743588  0.12516208    -0.96500
O21         O  0.87644072  0.33057156  0.14311303    -0.89800
O22         O  0.84141217  0.31293256  0.09086903    -0.92700
C23         C  0.80711092  0.38701989  0.16084461     1.01100
C24         C  0.76134878  0.30681907  0.13471009     1.14000
C25         C  0.84632649  0.35570423  0.25258073     1.04800
O26         O  0.90836219  0.39917388  0.19398642    -0.94800
O27         O  0.91699814  0.36231174  0.16660786    -0.90600
O28         O  0.91888526  0.35779561  0.10958594    -0.83700
C29         C  0.92766580  0.36137246  0.13999906     1.11400
O30         O  0.81394133  0.26650421  0.19224657    -0.96800
Zr31       Zr  0.83936230  0.29549479  0.14729449     1.88900
O32         O  0.88472052  0.31499048  0.07338039    -0.73400
O33         O  0.89573192  0.34289636  0.22636967    -0.52700
O34         O  0.86246237  0.28482955  0.18749001    -0.97400
O35         O  0.80993602  0.25899820  0.12291466    -0.54600
O36         O  0.86336631  0.28444420  0.11270871    -0.74000
C37         C  0.87777807  0.29399388  0.08675435     0.98400
O38         O  0.91083921  0.37924698  0.04997875    -0.62800
O39         O  0.78938918  0.33758711  0.04565122    -0.57600
O40         O  0.86766476  0.34617099  0.02655235    -0.94300
O41         O  0.82853311  0.33626019  0.02613723    -0.92700
O42         O  0.83957160  0.40252752  0.06676138    -0.93000
O43         O  0.88452947  0.42120285  0.07992767    -0.91800
C44         C  0.84856086  0.34291729  0.01112500     1.17200
H45         H  0.80334778  0.35754345  0.11608271     0.33200
H46         H  0.89962960  0.39112568  0.12228998     0.44000
H47         H  0.83959009  0.30240307  0.07332520     0.37600
H48         H  0.83998639  0.31619529  0.21057004     0.34000
H49         H  0.87417563  0.43592211  0.13943750     0.25800
H50         H  0.90474889  0.35601395  0.24148101     0.31800
H51         H  0.86407741  0.29366551  0.20796346     0.37700
H52         H  0.83902995  0.41658589  0.07385367     0.32100
H53         H  0.77605834  0.32275768  0.03772065     0.31000
H54         H  0.77833862  0.28468893  0.05034313     0.32700
H55         H  0.81580196  0.24766678  0.12825209     0.31700
H56         H  0.89010785  0.41325724  0.06477560     0.35700
H57         H  0.90299801  0.38681352  0.03632458     0.28400
H58         H  0.78208645  0.32015979  0.23676986     0.32600
H59         H  0.81670563  0.25286788  0.19132162     0.35500
H60         H  0.78181614  0.34386959  0.06046913     0.28100
H61         H  0.92118543  0.39141096  0.06574590     0.40900
H62         H  0.89913060  0.40479554  0.20652781     0.31000
H63         H  0.87145956  0.41961120  0.17236648     0.38600
H64         H  0.81213573  0.26231431  0.09772391     0.30500
H65         H  0.88193156  0.33099592  0.24048486     0.30500
H66         H  0.79390961  0.30401118  0.23650291     0.30800
Zr67       Zr  0.81359408  0.33960173  0.67777390     2.17500
O68         O  0.78364973  0.31112732  0.71904267    -0.51600
O69         O  0.80182577  0.36997979  0.67988627    -0.74800
O70         O  0.82541462  0.34753055  0.73734235    -0.81500
O71         O  0.77265793  0.31502784  0.60255263    -0.83300
O72         O  0.86477363  0.35936374  0.74033370    -0.78900
O73         O  0.77296684  0.31844031  0.66003870    -0.90600
O74         O  0.82842192  0.40284301  0.64814970    -0.76500
O75         O  0.85176361  0.37383990  0.67726651    -0.86000
O76         O  0.81791725  0.35954808  0.62263460    -0.85700
O77         O  0.84006439  0.32358590  0.68566385    -0.72400
O78         O  0.80946837  0.31181394  0.63672360    -0.84600
Zr79       Zr  0.88071722  0.35265734  0.58775493     2.26400
Zr80       Zr  0.87830600  0.35824371  0.68384495     2.06300
Zr81       Zr  0.81400683  0.33231431  0.58202884     2.10000
Zr82       Zr  0.85644781  0.39360764  0.62201279     1.78800
O83         O  0.79248830  0.29442728  0.55613350    -0.93400
O84         O  0.88249695  0.42758601  0.65435450    -0.41200
O85         O  0.85275776  0.36687599  0.57997914    -0.77800
O86         O  0.88475728  0.37992067  0.62945530    -0.96500
O87         O  0.87557065  0.33187743  0.64215313    -0.89800
O88         O  0.84205209  0.31849530  0.58783985    -0.92700
C89         C  0.80936561  0.39114867  0.66651466     1.01100
C90         C  0.76208728  0.31173594  0.63177553     1.14000
C91         C  0.84488594  0.35448880  0.75389177     1.04800
O92         O  0.90806973  0.39705458  0.70120973    -0.94800
O93         O  0.91662155  0.36399593  0.66987023    -0.90600
O94         O  0.92001466  0.36301647  0.61210142    -0.83700
C95         C  0.92823272  0.36547147  0.64287413     1.11400
O96         O  0.80868647  0.26610534  0.68109714    -0.96800
Zr97       Zr  0.83759637  0.29775608  0.64207115     1.88900
O98         O  0.88635285  0.32032789  0.57254904    -0.73400
O99         O  0.89000437  0.33668275  0.72625191    -0.52700
O100        O  0.85876596  0.28403627  0.68132486    -0.97400
O101        O  0.80833004  0.26330783  0.61324128    -0.54600
O102        O  0.86075001  0.28728131  0.60464791    -0.74000
C103        C  0.87721777  0.29823902  0.58144969     0.98400
O104        O  0.91247999  0.38395627  0.55174947    -0.62800
O105        O  0.79553445  0.34991297  0.54432030    -0.57600
O106        O  0.86999771  0.35107417  0.52700523    -0.94300
O107        O  0.83119063  0.34228873  0.52472286    -0.92700
O108        O  0.84128276  0.40975314  0.57624062    -0.93000
O109        O  0.88894751  0.42522673  0.58750183    -0.91800
C110        C  0.85122953  0.34794358  0.51066621     1.17200
H111        H  0.80558888  0.36361692  0.61795294     0.33200
H112        H  0.90069126  0.39330612  0.62821275     0.44000
H113        H  0.84039647  0.30884776  0.56909748     0.37600
H114        H  0.83715807  0.31519179  0.70801274     0.34000
H115        H  0.87795724  0.43973296  0.64730633     0.25800
H116        H  0.89889879  0.34803942  0.74381492     0.31800
H117        H  0.87487246  0.29075918  0.67100190     0.37700
H118        H  0.84640910  0.42609811  0.58229405     0.32100
H119        H  0.78385983  0.33672562  0.53105232     0.31000
H120        H  0.80051419  0.29678759  0.53369812     0.32700
H121        H  0.81326220  0.26668474  0.58871655     0.31700
H122        H  0.88899702  0.41798939  0.56601127     0.35700
H123        H  0.90521842  0.39294223  0.54050052     0.28400
H124        H  0.78161614  0.32041952  0.73643215     0.32600
H125        H  0.81210078  0.25288527  0.68016679     0.35500
H126        H  0.78573263  0.35336249  0.55960367     0.28100
H127        H  0.92398061  0.39499504  0.56785859     0.40900
H128        H  0.91812238  0.39384271  0.71779010     0.31000
H129        H  0.87686257  0.42272497  0.67850262     0.38600
H130        H  0.79347433  0.26420559  0.61390072     0.30500
H131        H  0.87508729  0.32462159  0.73803068     0.30500
H132        H  0.79127373  0.30282582  0.73134815     0.30800
Zr133      Zr  0.52640968  0.19994665  0.14663208     2.17500
O134        O  0.53011613  0.23032601  0.18368819    -0.51600
O135        O  0.56861473  0.21478345  0.15603891    -0.74800
O136        O  0.51953913  0.18782661  0.20755170    -0.81500
O137        O  0.53717926  0.24216597  0.06717900    -0.83300
O138        O  0.49944130  0.14784654  0.21419247    -0.78900
O139        O  0.53665662  0.23908691  0.12551799    -0.90600
O140        O  0.58014435  0.19213605  0.12915497    -0.76500
O141        O  0.52918807  0.16488465  0.15094934    -0.86000
O142        O  0.54517375  0.20033041  0.09442740    -0.85700
O143        O  0.48561290  0.16964455  0.15303365    -0.72400
O144        O  0.50105391  0.20158913  0.10170630    -0.84600
Zr145      Zr  0.48189540  0.13366867  0.05979533     2.26400
Zr146      Zr  0.48863551  0.13442081  0.15677200     2.06300
Zr147      Zr  0.51988953  0.20142220  0.04968247     2.10000
Zr148      Zr  0.54662221  0.16432737  0.09796549     1.78800
O149        O  0.50169950  0.22107802  0.01595168    -0.93400
O150        O  0.55960206  0.14027138  0.13272074    -0.41200
O151        O  0.52193219  0.16551915  0.05245642    -0.77800
O152        O  0.50675216  0.13206180  0.10527179    -0.96500
O153        O  0.46362911  0.13470749  0.11117848    -0.89800
O154        O  0.47990370  0.16945889  0.05453541    -0.92700
C155        C  0.58431499  0.20951011  0.14699398     1.01100
C156        C  0.54027094  0.25090766  0.09670216     1.14000
C157        C  0.50970792  0.16833748  0.22620055     1.04800
O158        O  0.50195463  0.10779823  0.18242454    -0.94800
O159        O  0.46037406  0.09525292  0.14242385    -0.90600
O160        O  0.45520930  0.09373454  0.08448786    -0.83700
C161        C  0.45043794  0.08453500  0.11552490     1.11400
O162        O  0.45107470  0.19249619  0.14286992    -0.96800
Zr163      Zr  0.46079476  0.16962138  0.10572703     1.88900
O164        O  0.44297039  0.12353247  0.03845353    -0.73400
O165        O  0.45324243  0.11866801  0.19339731    -0.52700
O166        O  0.42565530  0.14425092  0.14146443    -0.97400
O167        O  0.45311309  0.19831965  0.07271681    -0.54600
O168        O  0.42973635  0.14464051  0.06596598    -0.74000
C169        C  0.42735408  0.12964632  0.04406991     0.98400
O170        O  0.48832138  0.10492881  0.03159530    -0.62800
O171        O  0.55689011  0.22308706  0.01649549    -0.57600
O172        O  0.48975217  0.14531351  0.99909914    -0.94300
O173        O  0.51300451  0.18538593  0.99339711    -0.92700
O174        O  0.57743524  0.18499171  0.05359678    -0.93000
O175        O  0.55356658  0.13843924  0.06341375    -0.91800
C176        C  0.50148637  0.16494843  0.98104240     1.17200
H177        H  0.56075149  0.21405277  0.09118793     0.33200
H178        H  0.50681174  0.11721972  0.10598541     0.44000
H179        H  0.47126411  0.17015438  0.03441545     0.37600
H180        H  0.47896938  0.17116178  0.17404913     0.34000
H181        H  0.57719376  0.14911037  0.13093368     0.25800
H182        H  0.45602268  0.10981734  0.21292689     0.31800
H183        H  0.41827604  0.12864662  0.13145942     0.37700
H184        H  0.58910772  0.20010393  0.06305409     0.32100
H185        H  0.55408747  0.23348863  0.99957869     0.31000
H186        H  0.51518472  0.23508565  0.00411136     0.32700
H187        H  0.43564855  0.19013001  0.06981313     0.31700
H188        H  0.53762383  0.12692378  0.05541635     0.35700
H189        H  0.50309267  0.11444125  0.01772663     0.28400
H190        H  0.54227282  0.23215555  0.20095032     0.32600
H191        H  0.43522097  0.18990131  0.13562026     0.35500
H192        H  0.56864378  0.23403886  0.03243987     0.28100
H193        H  0.49287516  0.09688209  0.05024900     0.40900
H194        H  0.51702181  0.11822168  0.19385336     0.31000
H195        H  0.55605165  0.14169212  0.15673459     0.38600
H196        H  0.45954419  0.19952530  0.04941560     0.30500
H197        H  0.45382038  0.13249817  0.20347016     0.30500
H198        H  0.51490119  0.22357719  0.19670012     0.30800
Zr199      Zr  0.52589877  0.19981694  0.64962308     2.17500
O200        O  0.53763050  0.22905261  0.69264887    -0.51600
O201        O  0.56900327  0.21523158  0.65009810    -0.74800
O202        O  0.52048285  0.18393669  0.70897425    -0.81500
O203        O  0.52881154  0.24510264  0.58001787    -0.83300
O204        O  0.49752003  0.14413166  0.71041708    -0.78900
O205        O  0.53130818  0.23885515  0.63748478    -0.90600
O206        O  0.57867978  0.19281962  0.61906299    -0.76500
O207        O  0.52835426  0.16477959  0.64609879    -0.86000
O208        O  0.54180131  0.20281229  0.59383428    -0.85700
O209        O  0.48519293  0.16857366  0.65746083    -0.72400
O210        O  0.49814515  0.20344434  0.61084516    -0.84600
Zr211      Zr  0.47678959  0.13881722  0.55709081     2.26400
Zr212      Zr  0.48815185  0.13359876  0.65203157     2.06300
Zr213      Zr  0.51455833  0.20661776  0.55520002     2.10000
Zr214      Zr  0.54303100  0.16691076  0.58973584     1.78800
O215        O  0.49438270  0.22533178  0.52424751    -0.93400
O216        O  0.55608421  0.14092244  0.61870373    -0.41200
O217        O  0.51661838  0.17110664  0.54981956    -0.77800
O218        O  0.50337020  0.13415414  0.59654046    -0.96500
O219        O  0.46101315  0.13644773  0.61233400    -0.89800
O220        O  0.47481541  0.17438072  0.56058545    -0.92700
C221        C  0.58408611  0.21008524  0.63779968     1.01100
C222        C  0.53267882  0.25205756  0.61084051     1.14000
C223        C  0.50949239  0.16350356  0.72497297     1.04800
O224        O  0.51100369  0.11333590  0.66363589    -0.94800
O225        O  0.45732774  0.09598460  0.63559648    -0.90600
O226        O  0.44899635  0.09811617  0.57890645    -0.83700
C227        C  0.44541144  0.08713285  0.60879178     1.11400
O228        O  0.45016803  0.19089901  0.66017945    -0.96800
Zr229      Zr  0.45814580  0.17096741  0.61578289     1.88900
O230        O  0.43821582  0.13181574  0.53925311    -0.73400
O231        O  0.45771173  0.10570863  0.69328349    -0.52700
O232        O  0.42653782  0.14291479  0.65508055    -0.97400
O233        O  0.44633123  0.19905115  0.59104416    -0.54600
O234        O  0.42495565  0.14760215  0.57784083    -0.74000
C235        C  0.42238894  0.13585755  0.55127502     0.98400
O236        O  0.48024683  0.11157378  0.52084380    -0.62800
O237        O  0.55159598  0.23393058  0.52472790    -0.57600
O238        O  0.48552531  0.15413418  0.49774620    -0.94300
O239        O  0.50808326  0.19425791  0.49651678    -0.92700
O240        O  0.57276260  0.18919126  0.54469572    -0.93000
O241        O  0.54707515  0.14174806  0.55004630    -0.91800
C242        C  0.49740898  0.17461561  0.48180590     1.17200
H243        H  0.55725976  0.21658981  0.58998713     0.33200
H244        H  0.50320780  0.11945736  0.59358413     0.44000
H245        H  0.46542470  0.17638697  0.54242441     0.37600
H246        H  0.47919599  0.16851061  0.67995920     0.34000
H247        H  0.57166032  0.14559610  0.60789237     0.25800
H248        H  0.46601312  0.10050902  0.71041333     0.31800
H249        H  0.41192954  0.14267261  0.64628422     0.37700
H250        H  0.56842879  0.20093270  0.53465339     0.32100
H251        H  0.54796307  0.24530172  0.51154340     0.31000
H252        H  0.48661950  0.22924422  0.54234181     0.32700
H253        H  0.44563593  0.19728309  0.56597408     0.31700
H254        H  0.53308364  0.13664316  0.53501032     0.35700
H255        H  0.48329471  0.10091764  0.53687999     0.28400
H256        H  0.55031196  0.22817036  0.70626179     0.32600
H257        H  0.43357774  0.18750801  0.65663918     0.35500
H258        H  0.56276734  0.24331868  0.54253138     0.28100
H259        H  0.46395741  0.10148808  0.51244395     0.40900
H260        H  0.50081587  0.09726171  0.65574960     0.31000
H261        H  0.56005143  0.14632463  0.64227290     0.38600
H262        H  0.46029181  0.21481956  0.59398077     0.30500
H263        H  0.45255880  0.11517362  0.70587724     0.30500
H264        H  0.52395029  0.22342486  0.70873548     0.30800
Zr265      Zr  0.66771479  0.47667798  0.15982777     2.17500
O266        O  0.68360237  0.45782770  0.20042860    -0.51600
O267        O  0.63722459  0.43433889  0.15959893    -0.74800
O268        O  0.66267328  0.48134072  0.22039981    -0.81500
O269        O  0.70403455  0.47269688  0.08647292    -0.83300
O270        O  0.64592300  0.50474726  0.22310893    -0.78900
O271        O  0.69783911  0.46755686  0.14397769    -0.90600
O272        O  0.60820328  0.43119868  0.12326917    -0.76500
O273        O  0.63259510  0.47975705  0.15840723    -0.86000
O274        O  0.65208853  0.46610491  0.10398016    -0.85700
O275        O  0.68200134  0.51806392  0.16783674    -0.72400
O276        O  0.69856580  0.50487667  0.12047108    -0.84600
Zr277      Zr  0.65794652  0.53656850  0.06888704     2.26400
Zr278      Zr  0.64623375  0.52065179  0.16526341     2.06300
Zr279      Zr  0.68250161  0.49335716  0.06502396     2.10000
Zr280      Zr  0.61708961  0.46999082  0.10233208     1.78800
O281        O  0.72129552  0.51282011  0.03639690    -0.93400
O282        O  0.58242436  0.45688835  0.13974985    -0.41200
O283        O  0.64667960  0.49616064  0.06111370    -0.77800
O284        O  0.62831711  0.51012834  0.11032281    -0.96500
O285        O  0.67481784  0.54808904  0.12370567    -0.89800
O286        O  0.69355110  0.53374970  0.07043484    -0.92700
C287        C  0.61783321  0.42207757  0.14332491     1.01100
C288        C  0.70756492  0.46596226  0.11680489     1.14000
C289        C  0.65395562  0.49175443  0.23707496     1.04800
O290        O  0.60505426  0.50438108  0.18396413    -0.94800
O291        O  0.63641193  0.55110034  0.14982834    -0.90600
O292        O  0.64531830  0.56283894  0.09309728    -0.83700
C293        C  0.63807521  0.56427127  0.12298042     1.11400
O294        O  0.74171108  0.55075553  0.16480362    -0.96800
Zr295      Zr  0.71027223  0.54590963  0.12494714     1.88900
O296        O  0.69081725  0.57463698  0.05108096    -0.73400
O297        O  0.66268856  0.55239049  0.20455709    -0.52700
O298        O  0.71810603  0.57625176  0.16451821    -0.97400
O299        O  0.74737649  0.55371623  0.09771696    -0.54600
O300        O  0.72188023  0.58145395  0.08592064    -0.74000
C301        C  0.71216748  0.58754654  0.06097341     0.98400
O302        O  0.62794516  0.53999394  0.03365351    -0.62800
O303        O  0.66769142  0.45779122  0.03354311    -0.57600
O304        O  0.66123423  0.53012135  0.00858408    -0.94300
O305        O  0.67646766  0.50515280  0.00714663    -0.92700
O306        O  0.60097244  0.44532765  0.05383468    -0.93000
O307        O  0.58580800  0.47291299  0.07022641    -0.91800
C308        C  0.66847689  0.51808879  0.99256779     1.17200
H309        H  0.64923450  0.45064588  0.09874462     0.33200
H310        H  0.61446075  0.51216464  0.10873342     0.44000
H311        H  0.70442349  0.54324425  0.05186130     0.37600
H312        H  0.68924809  0.52215878  0.19004914     0.34000
H313        H  0.57070750  0.44114246  0.13211447     0.25800
H314        H  0.64986588  0.54813871  0.22168723     0.31800
H315        H  0.70950135  0.58439549  0.15505013     0.37700
H316        H  0.61293064  0.44059690  0.04868126     0.32100
H317        H  0.65684422  0.45893255  0.01617012     0.31000
H318        H  0.72284028  0.49986901  0.02701599     0.32700
H319        H  0.74688500  0.55973068  0.07387565     0.31700
H320        H  0.59407111  0.48377039  0.04993148     0.35700
H321        H  0.62091402  0.52599440  0.01975949     0.28400
H322        H  0.67030821  0.44697385  0.21621961     0.32600
H323        H  0.75407574  0.56762944  0.16157745     0.35500
H324        H  0.68160269  0.46011593  0.02008428     0.28100
H325        H  0.61496477  0.53686531  0.04986869     0.40900
H326        H  0.60536327  0.51595879  0.19946214     0.31000
H327        H  0.58716815  0.45345798  0.16279317     0.38600
H328        H  0.74561256  0.53788511  0.09530463     0.30500
H329        H  0.67513472  0.55058318  0.21744146     0.30500
H330        H  0.69514594  0.47039866  0.21470170     0.30800
Zr331      Zr  0.66589407  0.47883747  0.66382913     2.17500
O332        O  0.68802536  0.46908805  0.70720503    -0.51600
O333        O  0.63480791  0.43663731  0.66955302    -0.74800
O334        O  0.65939243  0.48565044  0.72309748    -0.81500
O335        O  0.69864435  0.46782025  0.59211427    -0.83300
O336        O  0.64922076  0.51438492  0.71965244    -0.78900
O337        O  0.69279660  0.46475942  0.64962361    -0.90600
O338        O  0.60362437  0.43189927  0.63642386    -0.76500
O339        O  0.63113825  0.48258718  0.65974661    -0.86000
O340        O  0.64894539  0.46457758  0.60983043    -0.85700
O341        O  0.68101915  0.52097034  0.66479358    -0.72400
O342        O  0.69581090  0.50366205  0.62100188    -0.84600
Zr343      Zr  0.65558161  0.53348318  0.56264641     2.26400
Zr344      Zr  0.64569361  0.52411439  0.65997439     2.06300
Zr345      Zr  0.67842322  0.48877080  0.56749514     2.10000
Zr346      Zr  0.61441367  0.46899921  0.60540138     1.78800
O347        O  0.71672108  0.50672889  0.53761064    -0.93400
O348        O  0.57913042  0.46126448  0.63770974    -0.41200
O349        O  0.64320123  0.49228328  0.56165641    -0.77800
O350        O  0.62652274  0.51005657  0.60676385    -0.96500
O351        O  0.67375268  0.54834754  0.61574163    -0.89800
O352        O  0.69072624  0.52994126  0.56613575    -0.92700
C353        C  0.61415138  0.42376348  0.65659599     1.01100
C354        C  0.70185985  0.46159717  0.62289052     1.14000
C355        C  0.65422828  0.50000022  0.73692394     1.04800
O356        O  0.60534597  0.50751616  0.68255172    -0.94800
O357        O  0.63687961  0.55411928  0.63798724    -0.90600
O358        O  0.64308064  0.56142239  0.58007531    -0.83700
C359        C  0.63746538  0.56530829  0.60951047     1.11400
O360        O  0.74047824  0.55028924  0.65820534    -0.96800
Zr361      Zr  0.70867383  0.54518930  0.61897911     1.88900
O362        O  0.68877168  0.57100017  0.54268123    -0.73400
O363        O  0.66029432  0.55862690  0.69397807    -0.52700
O364        O  0.72007455  0.57864877  0.65396045    -0.97400
O365        O  0.74370097  0.54891142  0.59032714    -0.54600
O366        O  0.71990329  0.57951199  0.57803648    -0.74000
C367        C  0.71002157  0.58471860  0.55245286     0.98400
O368        O  0.62518263  0.53435132  0.52504244    -0.62800
O369        O  0.66280614  0.45210942  0.53847154    -0.57600
O370        O  0.65788893  0.52280551  0.50453095    -0.94300
O371        O  0.66986590  0.49529064  0.50877666    -0.92700
O372        O  0.60124554  0.43934868  0.56315714    -0.93000
O373        O  0.58405890  0.46876879  0.56709920    -0.91800
C374        C  0.66282108  0.50809282  0.49140499     1.17200
H375        H  0.64536629  0.44849222  0.60748787     0.33200
H376        H  0.61279113  0.51224773  0.60429513     0.44000
H377        H  0.70125819  0.53820345  0.54665825     0.37600
H378        H  0.68870013  0.52648362  0.68636492     0.34000
H379        H  0.56727633  0.44470254  0.63357671     0.25800
H380        H  0.64808265  0.55423059  0.71218020     0.31800
H381        H  0.71451572  0.57152523  0.67751742     0.37700
H382        H  0.61606860  0.44037445  0.55456493     0.32100
H383        H  0.67573741  0.45471383  0.52252910     0.31000
H384        H  0.71425996  0.49631839  0.51879631     0.32700
H385        H  0.74159856  0.55164125  0.56554154     0.31700
H386        H  0.59300125  0.47852144  0.54633612     0.35700
H387        H  0.61847968  0.51974700  0.51248968     0.28400
H388        H  0.67603470  0.45715947  0.72376081     0.32600
H389        H  0.75368078  0.56651171  0.65248322     0.35500
H390        H  0.66205141  0.44007083  0.55612151     0.28100
H391        H  0.61201841  0.53156010  0.54064988     0.40900
H392        H  0.60240961  0.52109036  0.68237374     0.31000
H393        H  0.58334497  0.46064528  0.66215625     0.38600
H394        H  0.74179463  0.53281624  0.59265938     0.30500
H395        H  0.67436597  0.55972779  0.70618661     0.30500
H396        H  0.69721224  0.48343928  0.72002757     0.30800
Zr397      Zr  0.32277935  0.81031297  0.18215491     2.17500
O398        O  0.29260956  0.78238007  0.14507285    -0.51600
O399        O  0.35248581  0.79817175  0.17319730    -0.74800
O400        O  0.33042510  0.82351079  0.12193335    -0.81500
O401        O  0.30005536  0.76618121  0.25941989    -0.83300
O402        O  0.34250097  0.86269418  0.11777506    -0.78900
O403        O  0.30403558  0.76935002  0.20137425    -0.90600
O404        O  0.38543934  0.82165538  0.20318495    -0.76500
O405        O  0.35848109  0.84728896  0.17939151    -0.86000
O406        O  0.34250102  0.81149827  0.23454235    -0.85700
O407        O  0.30896909  0.83858979  0.17650038    -0.72400
O408        O  0.29494430  0.80534667  0.22657927    -0.84600
Zr409      Zr  0.33872355  0.87381579  0.27214338     2.26400
Zr410      Zr  0.34513605  0.87559539  0.17507996     2.06300
Zr411      Zr  0.31550304  0.80659557  0.27884877     2.10000
Zr412      Zr  0.37776821  0.84888654  0.23252788     1.78800
O413        O  0.27859224  0.78220980  0.31127092    -0.93400
O414        O  0.41202330  0.87522665  0.19587921    -0.41200
O415        O  0.35110152  0.84446199  0.27779442    -0.77800
O416        O  0.36617114  0.87875183  0.22736517    -0.96500
O417        O  0.31875152  0.87224664  0.21983751    -0.89800
O418        O  0.30329395  0.83611349  0.27497445    -0.92700
C419        C  0.37349247  0.80431766  0.18432933     1.01100
C420        C  0.29803903  0.75717532  0.23019113     1.14000
C421        C  0.33682349  0.84315695  0.10456268     1.04800
O422        O  0.38556589  0.90150510  0.15356451    -0.94800
O423        O  0.35291037  0.91356446  0.19108594    -0.90600
O424        O  0.35261537  0.91458006  0.24925717    -0.83700
C425        C  0.35550841  0.92423021  0.21852436     1.11400
O426        O  0.25095593  0.81057852  0.18579914    -0.96800
Zr427      Zr  0.28325298  0.83541321  0.22299143     1.88900
O428        O  0.30789127  0.88222905  0.28976980    -0.73400
O429        O  0.32994221  0.89494741  0.13425600    -0.52700
O430        O  0.27071538  0.85740088  0.18287742    -0.97400
O431        O  0.24812178  0.80656491  0.25623042    -0.54600
O432        O  0.27498523  0.86052298  0.25876030    -0.74000
C433        C  0.28637313  0.87588084  0.28104644     0.98400
O434        O  0.37165643  0.90220240  0.30531009    -0.62800
O435        O  0.33714676  0.78957625  0.31028421    -0.57600
O436        O  0.33566784  0.86031709  0.33237079    -0.94300
O437        O  0.32291619  0.82076971  0.33645492    -0.92700
O438        O  0.39220317  0.83057364  0.27615696    -0.93000
O439        O  0.41073280  0.87683711  0.26585314    -0.91800
C440        C  0.33033731  0.84076477  0.34962329     1.17200
H441        H  0.34604950  0.79872036  0.23744678     0.33200
H442        H  0.38014129  0.89421496  0.22758918     0.44000
H443        H  0.29351599  0.83423414  0.29462614     0.37600
H444        H  0.30072528  0.83703835  0.15506071     0.34000
H445        H  0.42374023  0.86980327  0.20077697     0.25800
H446        H  0.34178455  0.90205275  0.11517627     0.31800
H447        H  0.28569200  0.87107534  0.17369600     0.37700
H448        H  0.40680415  0.83197123  0.26597230     0.32100
H449        H  0.32474725  0.77556508  0.32369614     0.31000
H450        H  0.28259652  0.77314810  0.32902246     0.32700
H451        H  0.24757534  0.81480651  0.27631709     0.31700
H452        H  0.40404246  0.88505458  0.27829695     0.35700
H453        H  0.37707717  0.89277244  0.31994964     0.28400
H454        H  0.30137734  0.77857426  0.12836752     0.32600
H455        H  0.23715504  0.81223027  0.19249140     0.35500
H456        H  0.34272972  0.78288527  0.29299196     0.28100
H457        H  0.38477123  0.91091463  0.28829188     0.40900
H458        H  0.38372835  0.90996124  0.13266227     0.31000
H459        H  0.40677533  0.87070082  0.17220877     0.38600
H460        H  0.25226977  0.79461439  0.26591476     0.30500
H461        H  0.31566958  0.88198175  0.12419932     0.30500
H462        H  0.28643802  0.79154451  0.13138864     0.30800
Zr463      Zr  0.32575963  0.81273737  0.68358032     2.17500
O464        O  0.30042274  0.78438178  0.64260988    -0.51600
O465        O  0.35400797  0.79776801  0.68294957    -0.74800
O466        O  0.33651952  0.82652370  0.62389029    -0.81500
O467        O  0.29243430  0.76872094  0.75867677    -0.83300
O468        O  0.34952687  0.86588003  0.61846095    -0.78900
O469        O  0.29807364  0.77237777  0.70080375    -0.90600
O470        O  0.38654760  0.82187980  0.71299758    -0.76500
O471        O  0.36225572  0.84883678  0.68393429    -0.86000
O472        O  0.34150943  0.81240733  0.73907963    -0.85700
O473        O  0.31405234  0.84252068  0.67373860    -0.72400
O474        O  0.29610552  0.80990938  0.72295387    -0.84600
Zr475      Zr  0.34038195  0.87741299  0.77071165     2.26400
Zr476      Zr  0.35095205  0.87867784  0.67523481     2.06300
Zr477      Zr  0.31225644  0.80937868  0.77835238     2.10000
Zr478      Zr  0.37784121  0.84907557  0.73980848     1.78800
O479        O  0.27263717  0.78772622  0.80446148    -0.93400
O480        O  0.41510576  0.87465894  0.70885744    -0.41200
O481        O  0.34923817  0.84579493  0.78067012    -0.77800
O482        O  0.36913655  0.88071706  0.72986028    -0.96500
O483        O  0.32336436  0.87709570  0.71625181    -0.89800
O484        O  0.30338909  0.84109654  0.77093393    -0.92700
C485        C  0.37463006  0.80376923  0.69560604     1.01100
C486        C  0.28906234  0.76007614  0.72892719     1.14000
C487        C  0.34384673  0.84617492  0.60601386     1.04800
O488        O  0.39165429  0.90396096  0.65423489    -0.94800
O489        O  0.35866302  0.91702442  0.68944626    -0.90600
O490        O  0.35547294  0.91819174  0.74717927    -0.83700
C491        C  0.35955732  0.92764875  0.71627210     1.11400
O492        O  0.25484598  0.81866752  0.67721562    -0.96800
Zr493      Zr  0.28680238  0.84147443  0.71619021     1.88900
O494        O  0.31004607  0.88682365  0.78486290    -0.73400
O495        O  0.33575365  0.89757996  0.63369375    -0.52700
O496        O  0.27918007  0.86632596  0.67404453    -0.97400
O497        O  0.24976096  0.81309345  0.74574072    -0.54600
O498        O  0.27830579  0.86667208  0.75082937    -0.74000
C499        C  0.28916465  0.88121817  0.77421916     0.98400
O500        O  0.37246693  0.90547812  0.80545996    -0.62800
O501        O  0.32705480  0.78817842  0.81604434    -0.57600
O502        O  0.33532418  0.86463588  0.83095057    -0.94300
O503        O  0.31803126  0.82436729  0.83519051    -0.92700
O504        O  0.38887405  0.82971228  0.78659846    -0.93000
O505        O  0.40826001  0.87739502  0.77601287    -0.91800
C506        C  0.32681580  0.84459263  0.84814267     1.17200
H507        H  0.34390178  0.79899006  0.74395159     0.33200
H508        H  0.38350577  0.89572371  0.73128416     0.44000
H509        H  0.29293590  0.83988624  0.78931229     0.37600
H510        H  0.30699332  0.84125546  0.65138317     0.34000
H511        H  0.42623344  0.86933576  0.71800068     0.25800
H512        H  0.34720755  0.90391393  0.61411063     0.31800
H513        H  0.28485145  0.88152246  0.68474314     0.37700
H514        H  0.40335072  0.82993471  0.77816658     0.32100
H515        H  0.31270309  0.77533106  0.82808120     0.31000
H516        H  0.27369490  0.77679938  0.82245885     0.32700
H517        H  0.25147437  0.81814939  0.76948380     0.31700
H518        H  0.39996686  0.87547235  0.79805259     0.35700
H519        H  0.37882553  0.89612413  0.81815125     0.28400
H520        H  0.31111595  0.78225276  0.62717721     0.32600
H521        H  0.24242923  0.82304687  0.68103488     0.35500
H522        H  0.33209460  0.77994590  0.80059557     0.28100
H523        H  0.38539146  0.91599414  0.78893292     0.40900
H524        H  0.40137907  0.90949852  0.67503645     0.31000
H525        H  0.41209336  0.86962812  0.68503578     0.38600
H526        H  0.25036958  0.79815071  0.74802172     0.30500
H527        H  0.32106513  0.88451579  0.62466611     0.30500
H528        H  0.29345882  0.79245139  0.62806470     0.30800
Zr529      Zr  0.19859569  0.52619080  0.19721559     2.17500
O530        O  0.22656756  0.52451846  0.15780549    -0.51600
O531        O  0.21456608  0.56918470  0.18779150    -0.74800
O532        O  0.18639414  0.52323390  0.13747916    -0.81500
O533        O  0.24060332  0.54483492  0.27208358    -0.83300
O534        O  0.14646116  0.49897899  0.13581031    -0.78900
O535        O  0.23885342  0.54172645  0.21436744    -0.90600
O536        O  0.18833396  0.57831215  0.21104240    -0.76500
O537        O  0.16159086  0.52540005  0.19289852    -0.86000
O538        O  0.19597089  0.54425056  0.24676741    -0.85700
O539        O  0.17031696  0.48451622  0.19788975    -0.72400
O540        O  0.20153928  0.50267332  0.24567496    -0.84600
Zr541      Zr  0.13107248  0.47969199  0.29182000     2.26400
Zr542      Zr  0.13318278  0.48423163  0.19430674     2.06300
Zr543      Zr  0.19903043  0.52150196  0.29458974     2.10000
Zr544      Zr  0.15855497  0.54304429  0.24251783     1.78800
O545        O  0.22120402  0.50523221  0.32610921    -0.93400
O546        O  0.13550272  0.55299942  0.20121067    -0.41200
O547        O  0.16128302  0.52053007  0.29172894    -0.77800
O548        O  0.12829643  0.50231974  0.24256473    -0.96500
O549        O  0.13448617  0.46112044  0.24361304    -0.89800
O550        O  0.16866578  0.48092766  0.29682656    -0.92700
C551        C  0.20798626  0.58404231  0.19574187     1.01100
C552        C  0.25040503  0.54885479  0.24195015     1.14000
C553        C  0.16677568  0.51238271  0.12134685     1.04800
O554        O  0.10234590  0.49212246  0.17104408    -0.94800
O555        O  0.09458231  0.45347697  0.21301475    -0.90600
O556        O  0.09143598  0.45115273  0.27140332    -0.83700
C557        C  0.08310238  0.44451478  0.24135459     1.11400
O558        O  0.19743013  0.45409734  0.21422353    -0.96800
Zr559      Zr  0.17125665  0.46163962  0.24907669     1.88900
O560        O  0.12352107  0.44227276  0.31950536    -0.73400
O561        O  0.12187298  0.45129915  0.15804725    -0.52700
O562        O  0.14770112  0.42496351  0.22090527    -0.97400
O563        O  0.19959581  0.45506520  0.28368140    -0.54600
O564        O  0.14718976  0.43087104  0.29422116    -0.74000
C565        C  0.13130330  0.42776610  0.31665523     0.98400
O566        O  0.10123114  0.48561453  0.32005264    -0.62800
O567        O  0.21686920  0.55765890  0.32517285    -0.57600
O568        O  0.14173551  0.48991492  0.35078363    -0.94300
O569        O  0.18203379  0.51373284  0.35232457    -0.92700
O570        O  0.17409558  0.57471896  0.28180599    -0.93000
O571        O  0.12730831  0.54628594  0.27144192    -0.91800
C572        C  0.16124913  0.50225599  0.36657759     1.17200
H573        H  0.20897757  0.56005200  0.24904232     0.33200
H574        H  0.11278520  0.50114906  0.24205335     0.44000
H575        H  0.16977075  0.47315307  0.31826592     0.37600
H576        H  0.17281647  0.47807599  0.17778278     0.34000
H577        H  0.14096013  0.56992728  0.20389325     0.25800
H578        H  0.11084769  0.45253968  0.14108204     0.31800
H579        H  0.14622463  0.43004539  0.19691222     0.37700
H580        H  0.17732340  0.56777115  0.30323477     0.32100
H581        H  0.23242407  0.55969843  0.33294634     0.31000
H582        H  0.23121906  0.51748035  0.34197117     0.32700
H583        H  0.19458931  0.45409666  0.30782832     0.31700
H584        H  0.12692960  0.53980693  0.29527153     0.35700
H585        H  0.11018649  0.50160293  0.32876609     0.28400
H586        H  0.23072038  0.53756702  0.13994353     0.32600
H587        H  0.19418597  0.43795376  0.22196326     0.35500
H588        H  0.22092841  0.57063887  0.30724960     0.28100
H589        H  0.09168241  0.48744240  0.30112985     0.40900
H590        H  0.11031048  0.50953806  0.16700251     0.31000
H591        H  0.14181346  0.55280103  0.17839161     0.38600
H592        H  0.21474404  0.47019451  0.28097514     0.30500
H593        H  0.13628214  0.45518263  0.14448151     0.30500
H594        H  0.21731304  0.50980620  0.14577320     0.30800
Zr595      Zr  0.19628323  0.52965738  0.69275106     2.17500
O596        O  0.22441801  0.53252284  0.64923643    -0.51600
O597        O  0.20802232  0.57195578  0.68418668    -0.74800
O598        O  0.18016141  0.52445055  0.63481772    -0.81500
O599        O  0.24193099  0.54261744  0.76369552    -0.83300
O600        O  0.14041658  0.49890016  0.63871314    -0.78900
O601        O  0.23815997  0.54794030  0.70644056    -0.90600
O602        O  0.18418426  0.57776098  0.71947700    -0.76500
O603        O  0.15844057  0.52723618  0.69751857    -0.86000
O604        O  0.19563927  0.54462188  0.74626377    -0.85700
O605        O  0.16789676  0.48794174  0.69207485    -0.72400
O606        O  0.20231320  0.50472878  0.73571435    -0.84600
Zr607      Zr  0.13462393  0.47696301  0.79473897     2.26400
Zr608      Zr  0.13010454  0.48604281  0.69831570     2.06300
Zr609      Zr  0.20181185  0.52053315  0.78900455     2.10000
Zr610      Zr  0.15760688  0.54168543  0.75145893     1.78800
O611        O  0.22498054  0.50464860  0.81869561    -0.93400
O612        O  0.13008232  0.55008465  0.71778967    -0.41200
O613        O  0.16370337  0.51803208  0.79550262    -0.77800
O614        O  0.12778827  0.50094194  0.75158201    -0.96500
O615        O  0.13534444  0.46147833  0.74174931    -0.89800
O616        O  0.17270449  0.47948055  0.79022585    -0.92700
C617        C  0.20146228  0.58536012  0.69790846     1.01100
C618        C  0.25083368  0.55085948  0.73338821     1.14000
C619        C  0.15959304  0.51238584  0.62150309     1.04800
O620        O  0.10263323  0.50035186  0.68167541    -0.94800
O621        O  0.09191376  0.45605524  0.72057411    -0.90600
O622        O  0.09331974  0.45013279  0.77860751    -0.83700
C623        C  0.08246174  0.44570711  0.74968688     1.11400
O624        O  0.19605421  0.45736116  0.69480713    -0.96800
Zr625      Zr  0.17279087  0.46352252  0.73728264     1.88900
O626        O  0.13118510  0.43967673  0.81536837    -0.73400
O627        O  0.11141836  0.45208510  0.66311060    -0.52700
O628        O  0.14711153  0.42923487  0.70521708    -0.97400
O629        O  0.20489785  0.45887903  0.76385097    -0.54600
O630        O  0.15161325  0.42986912  0.77921316    -0.74000
C631        C  0.13818680  0.42568090  0.80564357     0.98400
O632        O  0.10344683  0.47302037  0.83334697    -0.62800
O633        O  0.22290687  0.55831487  0.81535894    -0.57600
O634        O  0.14947921  0.48873725  0.85212569    -0.94300
O635        O  0.18922745  0.51404701  0.84861837    -0.92700
O636        O  0.17545113  0.57167874  0.79312123    -0.93000
O637        O  0.13096390  0.54630715  0.78946455    -0.91800
C638        C  0.16961666  0.50233278  0.86564274     1.17200
H639        H  0.20844692  0.56062566  0.74760233     0.33200
H640        H  0.11222664  0.49929215  0.75477082     0.44000
H641        H  0.17563768  0.47119430  0.80958529     0.37600
H642        H  0.16880923  0.48224452  0.67022981     0.34000
H643        H  0.13414017  0.56628282  0.72321516     0.25800
H644        H  0.10262848  0.45614351  0.64529804     0.31800
H645        H  0.14928686  0.41615723  0.71578971     0.37700
H646        H  0.19263939  0.57682005  0.79227350     0.32100
H647        H  0.23695599  0.55830391  0.82593724     0.31000
H648        H  0.23200524  0.51462441  0.83837924     0.32700
H649        H  0.20233294  0.45826339  0.78891541     0.31700
H650        H  0.12624794  0.53327462  0.80751055     0.35700
H651        H  0.10288524  0.46214088  0.85281351     0.28400
H652        H  0.22576170  0.54490738  0.63173929     0.32600
H653        H  0.19429384  0.44160568  0.70143226     0.35500
H654        H  0.22968372  0.57074428  0.79635413     0.28100
H655        H  0.10973212  0.48860654  0.84313620     0.40900
H656        H  0.09118302  0.48849188  0.66640517     0.31000
H657        H  0.13541571  0.55188863  0.69361191     0.38600
H658        H  0.21943764  0.47427841  0.75868317     0.30500
H659        H  0.12467346  0.45225462  0.65054103     0.30500
H660        H  0.21629427  0.51752279  0.63759899     0.30800
Zr661      Zr  0.48199083  0.68074854  0.17620838     2.17500
O662        O  0.47552410  0.70455665  0.13061712    -0.51600
O663        O  0.43946161  0.65057001  0.17871287    -0.74800
O664        O  0.48680896  0.67156255  0.11742412    -0.81500
O665        O  0.46985486  0.71222223  0.24557769    -0.83300
O666        O  0.51426528  0.65943559  0.11966162    -0.78900
O667        O  0.46443082  0.70449931  0.18935246    -0.90600
O668        O  0.43489994  0.61994397  0.21549503    -0.76500
O669        O  0.48537048  0.64600398  0.18368325    -0.86000
O670        O  0.46869954  0.66498829  0.23344751    -0.85700
O671        O  0.52399102  0.69512521  0.16962088    -0.72400
O672        O  0.50764060  0.71122965  0.21348418    -0.84600
Zr673      Zr  0.53873028  0.67184538  0.27290174     2.26400
Zr674      Zr  0.52696822  0.65999794  0.17806228     2.06300
Zr675      Zr  0.49359833  0.69475567  0.27037043     2.10000
Zr676      Zr  0.47264787  0.63044921  0.24107113     1.78800
O677        O  0.51080602  0.73315322  0.29476654    -0.93400
O678        O  0.46289526  0.59525409  0.21095460    -0.41200
O679        O  0.49735135  0.65987148  0.27898444    -0.77800
O680        O  0.51380012  0.64215555  0.23468181    -0.96500
O681        O  0.55232367  0.68866272  0.21639926    -0.89800
O682        O  0.53508307  0.70684344  0.26603757    -0.92700
C683        C  0.42663649  0.63042800  0.19537574     1.01100
C684        C  0.46131931  0.71338662  0.21577941     1.14000
C685        C  0.50002851  0.66473390  0.10314181     1.04800
O686        O  0.51393295  0.61973332  0.16312894    -0.94800
O687        O  0.55670808  0.65034262  0.19627529    -0.90600
O688        O  0.56507415  0.65732317  0.25270847    -0.83700
C689        C  0.56825367  0.65098633  0.22348361     1.11400
O690        O  0.55291745  0.75429785  0.16696774    -0.96800
Zr691      Zr  0.54928577  0.72345480  0.20958738     1.88900
O692        O  0.57819089  0.70433842  0.28298749    -0.73400
O693        O  0.56163019  0.67925291  0.13973169    -0.52700
O694        O  0.58040695  0.73466300  0.16645936    -0.97400
O695        O  0.55560461  0.75906935  0.23573647    -0.54600
O696        O  0.58579358  0.73356675  0.24188232    -0.74000
C697        C  0.59222245  0.72445622  0.26738139     0.98400
O698        O  0.53988020  0.64219035  0.31374207    -0.62800
O699        O  0.45711598  0.67807635  0.30482689    -0.57600
O700        O  0.52935851  0.67581234  0.33201663    -0.94300
O701        O  0.50009536  0.68587071  0.32950352    -0.92700
O702        O  0.44471419  0.61855491  0.28912020    -0.93000
O703        O  0.47213162  0.59979847  0.28106887    -0.91800
C704        C  0.51378083  0.67970002  0.34598890     1.17200
H705        H  0.45269407  0.66165226  0.23793345     0.33200
H706        H  0.51584613  0.62842395  0.23833995     0.44000
H707        H  0.54399310  0.71772861  0.28331009     0.37600
H708        H  0.52910865  0.70212914  0.14657659     0.34000
H709        H  0.44734384  0.58298227  0.22087497     0.25800
H710        H  0.55947131  0.66717734  0.12376499     0.31800
H711        H  0.58915148  0.72636016  0.17458685     0.37700
H712        H  0.43007456  0.60459137  0.28178350     0.32100
H713        H  0.45891931  0.69116255  0.31838561     0.31000
H714        H  0.49974682  0.73087502  0.31370507     0.32700
H715        H  0.56159489  0.75819549  0.25904612     0.31700
H716        H  0.48753337  0.60773646  0.29297394     0.35700
H717        H  0.52493606  0.63536643  0.32742091     0.28400
H718        H  0.46353740  0.69327966  0.11521505     0.32600
H719        H  0.56861880  0.76823609  0.17084328     0.35500
H720        H  0.44426015  0.67555499  0.28851034     0.28100
H721        H  0.53761752  0.62908182  0.29982883     0.40900
H722        H  0.52353862  0.62159852  0.14249477     0.31000
H723        H  0.45921032  0.59873745  0.18721638     0.38600
H724        H  0.53942706  0.75665323  0.23957628     0.30500
H725        H  0.55973986  0.69136238  0.12539503     0.30500
H726        H  0.49051267  0.71284725  0.11693412     0.30800
Zr727      Zr  0.48510636  0.68404040  0.67854224     2.17500
O728        O  0.48447699  0.71328025  0.63641474    -0.51600
O729        O  0.44218889  0.65560894  0.67874665    -0.74800
O730        O  0.48593577  0.67480571  0.61934554    -0.81500
O731        O  0.46986733  0.70903892  0.75221360    -0.83300
O732        O  0.51273020  0.66193754  0.61666992    -0.78900
O733        O  0.46697130  0.70637547  0.69454431    -0.90600
O734        O  0.43552787  0.62330453  0.71345250    -0.76500
O735        O  0.48620120  0.64801419  0.68170512    -0.86000
O736        O  0.47095312  0.66623292  0.73465057    -0.85700
O737        O  0.52658044  0.69665806  0.66982107    -0.72400
O738        O  0.51185062  0.71255931  0.71720931    -0.84600
Zr739      Zr  0.53916201  0.66810759  0.76981380     2.26400
Zr740      Zr  0.52724799  0.66024075  0.67389737     2.06300
Zr741      Zr  0.49683767  0.69420838  0.77290811     2.10000
Zr742      Zr  0.47284841  0.63051168  0.73823010     1.78800
O743        O  0.51590650  0.73423777  0.79197841    -0.93400
O744        O  0.45964727  0.59488691  0.70746097    -0.41200
O745        O  0.49835745  0.65792268  0.77799850    -0.77800
O746        O  0.51343651  0.64058567  0.72958718    -0.96500
O747        O  0.55374040  0.68665165  0.71419979    -0.89800
O748        O  0.53753083  0.70419507  0.76671176    -0.92700
C749        C  0.42842134  0.63514647  0.69390600     1.01100
C750        C  0.46189537  0.71189527  0.72267866     1.14000
C751        C  0.49793746  0.66765340  0.60288592     1.04800
O752        O  0.51184649  0.61990246  0.65744206    -0.94800
O753        O  0.55808331  0.65131530  0.68925981    -0.90600
O754        O  0.56519459  0.65421780  0.74665666    -0.83700
C755        C  0.56907220  0.65005371  0.71622587     1.11400
O756        O  0.55733943  0.75452892  0.67031805    -0.96800
Zr757      Zr  0.55296408  0.72264838  0.71149492     1.88900
O758        O  0.57748528  0.69976060  0.78653608    -0.73400
O759        O  0.55958992  0.67617238  0.63148064    -0.52700
O760        O  0.58408720  0.73053577  0.66981823    -0.97400
O761        O  0.56365877  0.75973823  0.73693682    -0.54600
O762        O  0.58712037  0.73162880  0.74915659    -0.74000
C763        C  0.59159832  0.72113129  0.77512763     0.98400
O764        O  0.53870528  0.63602962  0.80680889    -0.62800
O765        O  0.46359361  0.68016897  0.81336575    -0.57600
O766        O  0.52979704  0.66915371  0.82986230    -0.94300
O767        O  0.50692990  0.68692767  0.83089993    -0.92700
O768        O  0.44632074  0.61811860  0.78813477    -0.93000
O769        O  0.47237303  0.59807721  0.77395144    -0.91800
C770        C  0.51828307  0.67726490  0.84560681     1.17200
H771        H  0.45515167  0.66342701  0.73958355     0.33200
H772        H  0.51478466  0.62640275  0.73174371     0.44000
H773        H  0.54654963  0.71421236  0.78481454     0.37600
H774        H  0.53164307  0.70432742  0.64707600     0.34000
H775        H  0.44255655  0.58494329  0.71356907     0.25800
H776        H  0.55505642  0.66362774  0.61524859     0.31800
H777        H  0.59726939  0.73082660  0.68358802     0.37700
H778        H  0.43232075  0.60306304  0.78224607     0.32100
H779        H  0.46390245  0.69466341  0.82036559     0.31000
H780        H  0.50617999  0.73323948  0.81197493     0.32700
H781        H  0.58104372  0.76964791  0.73299222     0.31700
H782        H  0.48188393  0.60560965  0.79423596     0.35700
H783        H  0.52336934  0.62862674  0.81961576     0.28400
H784        H  0.47171341  0.70434435  0.62008239     0.32600
H785        H  0.57466386  0.76561611  0.66812939     0.35500
H786        H  0.44910393  0.67232882  0.79938547     0.28100
H787        H  0.53671755  0.62385081  0.79115235     0.40900
H788        H  0.52194312  0.62141223  0.63761037     0.31000
H789        H  0.45984211  0.60001519  0.68292646     0.38600
H790        H  0.56191368  0.75578731  0.76204586     0.30500
H791        H  0.55857811  0.68912462  0.61807736     0.30500
H792        H  0.49950059  0.71982316  0.62298693     0.30800
Zr793      Zr  0.21722676  0.02195456  0.88720462     2.17500
O794        O  0.24603623  0.05137634  0.84571413    -0.51600
O795        O  0.22565558  0.99125584  0.87254795    -0.74800
O796        O  0.25818152  0.03989377  0.90904376    -0.81500
O797        O  0.16582818  0.00561578  0.82585277    -0.83300
O798        O  0.25559578  0.04043148  0.96698400    -0.78900
O799        O  0.20611856  0.02206204  0.82728167    -0.90600
O800        O  0.20450081  0.95882170  0.90865846    -0.76500
O801        O  0.21525563  0.00305795  0.94237264    -0.86000
O802        O  0.18077315  0.98501239  0.88919607    -0.85700
O803        O  0.21899081  0.04925234  0.92707161    -0.72400
O804        O  0.18568409  0.03123033  0.87984905    -0.84600
Zr805      Zr  0.14906581  0.00402934  0.97898548     2.26400
Zr806      Zr  0.21554054  0.02942857  0.98237697     2.06300
Zr807      Zr  0.14924124  0.99403664  0.88370680     2.10000
Zr808      Zr  0.17886678  0.96669306  0.94461254     1.78800
O809        O  0.12489193  0.00283234  0.84330972    -0.93400
O810        O  0.20046801  0.95523088  0.98647918    -0.41200
O811        O  0.14713579  0.97593588  0.93979111    -0.77800
O812        O  0.17923644  0.99260815  0.98591391    -0.96500
O813        O  0.18533862  0.04048638  0.97625709    -0.89800
O814        O  0.15103703  0.02126476  0.92260519    -0.92700
C815        C  0.21962070  0.97010233  0.88394957     1.01100
C816        C  0.18646091  0.01533940  0.81128838     1.14000
C817        C  0.26730961  0.04381494  0.93920218     1.04800
O818        O  0.23547425  0.01722496  0.02607345    -0.94800
O819        O  0.20075030  0.02206326  0.04063566    -0.90600
O820        O  0.16169953  0.01210460  0.03875297    -0.83700
C821        C  0.18089300  0.01654361  0.05501122     1.11400
O822        O  0.21897562  0.09363132  0.89086843    -0.96800
Zr823      Zr  0.18705140  0.05800130  0.92006648     1.88900
O824        O  0.13180782  0.03072795  0.97698185    -0.73400
O825        O  0.23706021  0.07007336  0.99921498    -0.52700
O826        O  0.20357982  0.08909685  0.96036119    -0.97400
O827        O  0.17204613  0.06949989  0.86863037    -0.54600
O828        O  0.15430662  0.06240915  0.93983432    -0.74000
C829        C  0.13610927  0.05007404  0.95952989     0.98400
O830        O  0.12458149  0.97742227  0.02668881    -0.62800
O831        O  0.13250716  0.95405365  0.86487525    -0.57600
O832        O  0.10858595  0.97928132  0.96183815    -0.94300
O833        O  0.10785850  0.97707694  0.90395103    -0.92700
O834        O  0.15061347  0.93113188  0.91719790    -0.93000
O835        O  0.15298058  0.93394383  0.98470698    -0.91800
C836        C  0.09753461  0.97315457  0.93351612     1.17200
H837        H  0.17995430  0.97525759  0.87105671     0.33200
H838        H  0.17748963  0.98463115  0.00831914     0.44000
H839        H  0.13747878  0.02314918  0.91693602     0.37600
H840        H  0.23406419  0.06370732  0.92458021     0.34000
H841        H  0.19813241  0.93994546  0.97923325     0.25800
H842        H  0.24719534  0.06966601  0.01835381     0.31800
H843        H  0.19637264  0.09920511  0.95427837     0.37700
H844        H  0.15841149  0.92129072  0.91720803     0.32100
H845        H  0.11715159  0.94482930  0.87751031     0.31000
H846        H  0.11675795  0.98873771  0.82967564     0.32700
H847        H  0.17563365  0.08594153  0.87134333     0.31700
H848        H  0.14560711  0.94062928  0.99913187     0.35700
H849        H  0.11144721  0.98091648  0.02946952     0.28400
H850        H  0.25747686  0.04582500  0.84137433     0.32600
H851        H  0.21584935  0.10661985  0.89564921     0.35500
H852        H  0.12802522  0.95523244  0.84069681     0.28100
H853        H  0.11697905  0.96135766  0.01814015     0.40900
H854        H  0.23347576  0.00211266  0.01864377     0.31000
H855        H  0.21746102  0.96652905  0.98133415     0.38600
H856        H  0.18256739  0.07070937  0.84956441     0.30500
H857        H  0.24842738  0.07914431  0.98008617     0.30500
H858        H  0.25513989  0.06587054  0.85826897     0.30800
Zr859      Zr  0.21528281  0.01773093  0.39194562     2.17500
O860        O  0.24405288  0.04558410  0.34907973    -0.51600
O861        O  0.22459549  0.98617408  0.38501751    -0.74800
O862        O  0.25592392  0.03940973  0.41443527    -0.81500
O863        O  0.16410470  0.99660050  0.32905532    -0.83300
O864        O  0.25330756  0.04757322  0.46955645    -0.78900
O865        O  0.20427201  0.01369639  0.33120200    -0.90600
O866        O  0.20126474  0.95519442  0.42202759    -0.76500
O867        O  0.21312823  0.00302864  0.45018408    -0.86000
O868        O  0.17901086  0.98084280  0.39753290    -0.85700
O869        O  0.21582249  0.04727153  0.42632720    -0.72400
O870        O  0.18366242  0.02623222  0.37915874    -0.84600
Zr871      Zr  0.14575471  0.00497162  0.47821540     2.26400
Zr872      Zr  0.21216773  0.03163004  0.48460287     2.06300
Zr873      Zr  0.14740668  0.98923751  0.38640145     2.10000
Zr874      Zr  0.17702163  0.96637841  0.45555627     1.78800
O875        O  0.12502622  0.99951195  0.34434758    -0.93400
O876        O  0.20039148  0.95668695  0.49669040    -0.41200
O877        O  0.14479172  0.97447709  0.44496523    -0.77800
O878        O  0.17625330  0.99467081  0.49146568    -0.96500
O879        O  0.18164947  0.04163982  0.47228812    -0.89800
O880        O  0.14792568  0.01872581  0.41956812    -0.92700
C881        C  0.21717095  0.96494422  0.39797207     1.01100
C882        C  0.18467812  0.00566592  0.31453095     1.14000
C883        C  0.26509431  0.04867248  0.44290825     1.04800
O884        O  0.22718006  0.01497429  0.52992549    -0.94800
O885        O  0.19776290  0.03245522  0.54064974    -0.90600
O886        O  0.15743236  0.01433689  0.53786098    -0.83700
C887        C  0.17710790  0.02418172  0.55433289     1.11400
O888        O  0.21447259  0.08804614  0.37762214    -0.96800
Zr889      Zr  0.18406858  0.05540371  0.41368059     1.88900
O890        O  0.12931466  0.03209493  0.47127790    -0.73400
O891        O  0.23388423  0.07232393  0.50118118    -0.52700
O892        O  0.20433971  0.09046814  0.44640643    -0.97400
O893        O  0.16960130  0.06607568  0.36095768    -0.54600
O894        O  0.15153494  0.06099646  0.43041252    -0.74000
C895        C  0.13342382  0.05007598  0.45067613     0.98400
O896        O  0.11830998  0.98508638  0.52677644    -0.62800
O897        O  0.13051477  0.94899475  0.36854287    -0.57600
O898        O  0.10594471  0.97753875  0.46093367    -0.94300
O899        O  0.10568732  0.97158248  0.40420105    -0.92700
O900        O  0.14709986  0.92886894  0.43459965    -0.93000
O901        O  0.15368838  0.93904392  0.50332827    -0.91800
C902        C  0.09519015  0.96920655  0.43305963     1.17200
H903        H  0.17831934  0.96988651  0.38144141     0.33200
H904        H  0.17449384  0.98836031  0.51505636     0.44000
H905        H  0.13421299  0.02005490  0.41246437     0.37600
H906        H  0.23069582  0.06186519  0.42283775     0.34000
H907        H  0.19642366  0.94034572  0.49227041     0.25800
H908        H  0.24539453  0.07244575  0.51845206     0.31800
H909        H  0.19301914  0.08805126  0.46503823     0.37700
H910        H  0.15402759  0.92731244  0.41317713     0.41100
H911        H  0.11919893  0.93894073  0.38724078     0.31000
H912        H  0.13587692  0.01631707  0.33700156     0.32700
H913        H  0.15204684  0.05696276  0.36312228     0.31700
H914        H  0.14035462  0.94222123  0.50643108     0.35700
H915        H  0.10450970  0.98754883  0.52235542     0.28400
H916        H  0.25695936  0.04154431  0.34862162     0.32600
H917        H  0.21096938  0.10120956  0.37858972     0.35500
H918        H  0.12028892  0.94833242  0.34890430     0.28100
H919        H  0.11214710  0.96795489  0.52480073     0.40900
H920        H  0.23743219  0.01028990  0.51794809     0.31000
H921        H  0.21708280  0.96659742  0.48854937     0.38600
H922        H  0.17343500  0.05858586  0.34267900     0.30500
H923        H  0.24377163  0.08169279  0.48084300     0.30500
H924        H  0.25125176  0.06121179  0.35898624     0.30800
Zr925      Zr  0.01249871  0.21488079  0.97443143     2.17500
O926        O  0.03590224  0.24263946  0.01724238    -0.51600
O927        O  0.98211038  0.22586659  0.98253935    -0.74800
O928        O  0.03767369  0.25574527  0.95029949    -0.81500
O929        O  0.98605385  0.16168605  0.04052542    -0.83300
O930        O  0.04524190  0.25458522  0.89393159    -0.78900
O931        O  0.00745510  0.20185055  0.03524739    -0.90600
O932        O  0.95114599  0.20539833  0.94762176    -0.76500
O933        O  0.99943463  0.21556011  0.91707102    -0.86000
O934        O  0.97433169  0.18017870  0.97168059    -0.85700
O935        O  0.04263916  0.21536522  0.93872426    -0.72400
O936        O  0.01840721  0.18156265  0.98808322    -0.84600
Zr937      Zr  0.99837405  0.14783576  0.89090997     2.26400
Zr938      Zr  0.02836235  0.21406036  0.88123386     2.06300
Zr939      Zr  0.98019193  0.14688133  0.98335146     2.10000
Zr940      Zr  0.96158074  0.18107472  0.91432318     1.78800
O941        O  0.98541285  0.12125546  0.02694531    -0.93400
O942        O  0.95738982  0.20739254  0.87061521    -0.41200
O943        O  0.96740516  0.14731938  0.92546091    -0.77800
O944        O  0.99027716  0.17979923  0.87748121    -0.96500
O945        O  0.03625155  0.18215180  0.89403372    -0.89800
O946        O  0.01042698  0.14735430  0.94892046    -0.92700
C947        C  0.96142744  0.22024319  0.97081127     1.01100
C948        C  0.99686340  0.18205127  0.05329965     1.14000
C949        C  0.04677630  0.26559433  0.92057650     1.04800
O950        O  0.01732607  0.23529803  0.83750034    -0.94800
O951        O  0.02659965  0.20011586  0.82466210    -0.90600
O952        O  0.00947169  0.16014156  0.83039764    -0.83700
C953        C  0.01878745  0.17990314  0.81216092     1.11400
O954        O  0.07721998  0.20945557  0.99102334    -0.96800
Zr955      Zr  0.04821361  0.18205279  0.95216731     1.88900
O956        O  0.02459600  0.13014986  0.89562786    -0.73400
O957        O  0.06991378  0.23356870  0.86280027    -0.52700
O958        O  0.08489318  0.20423998  0.91836417    -0.97400
O959        O  0.05871088  0.16389684  0.00133046    -0.54600
O960        O  0.05419960  0.15099711  0.93260282    -0.74000
C961        C  0.04316593  0.13391698  0.91312337     0.98400
O962        O  0.97605807  0.12442291  0.84334795    -0.62800
O963        O  0.93850930  0.13134093  0.99877532    -0.57600
O964        O  0.97059365  0.10771065  0.90998426    -0.94300
O965        O  0.96195765  0.10582506  0.96652582    -0.92700
O966        O  0.92113314  0.15483998  0.93564840    -0.93000
O967        O  0.93361882  0.15953129  0.86993518    -0.91800
C968        C  0.96067724  0.09614934  0.93820628     1.17200
H969        H  0.96323841  0.17968296  0.98836016     0.33200
H970        H  0.98451094  0.17895539  0.85433890     0.44000
H971        H  0.01127718  0.13325981  0.95572966     0.37600
H972        H  0.05766089  0.22961612  0.94107307     0.34000
H973        H  0.94304375  0.20792642  0.87778017     0.25800
H974        H  0.07180671  0.22121106  0.85209209     0.31800
H975        H  0.09395383  0.19582026  0.92371327     0.37700
H976        H  0.92140904  0.15799036  0.96017309     0.32100
H977        H  0.92954386  0.11918911  0.98223241     0.31000
H978        H  0.97007210  0.11285617  0.03977081     0.32700
H979        H  0.07263243  0.16280230  0.99358554     0.31700
H980        H  0.93755312  0.14717340  0.86456963     0.35700
H981        H  0.98020592  0.11170584  0.84257455     0.28400
H982        H  0.03104186  0.25493388  0.01573310     0.32600
H983        H  0.09261637  0.21070380  0.98486464     0.35500
H984        H  0.93632335  0.12222753  0.02106544     0.28100
H985        H  0.95908849  0.11630892  0.85049805     0.40900
H986        H  0.00058958  0.22403669  0.83220066     0.31000
H987        H  0.97072770  0.22336921  0.87444291     0.38600
H988        H  0.04560011  0.14730647  0.00358430     0.30500
H989        H  0.07107036  0.24469292  0.84332320     0.30500
H990        H  0.05260660  0.25078076  0.00881989     0.30800
Zr991      Zr  0.00913962  0.21251749  0.47768607     2.17500
O992        O  0.03100164  0.23916091  0.52240892    -0.51600
O993        O  0.97798446  0.22226872  0.48728721    -0.74800
O994        O  0.03299343  0.25404379  0.45530763    -0.81500
O995        O  0.98786794  0.15794934  0.54218004    -0.83300
O996        O  0.03517064  0.25363554  0.39731748    -0.78900
O997        O  0.00738780  0.19825613  0.53784071    -0.90600
O998        O  0.94692487  0.20179791  0.45259845    -0.76500
O999        O  0.99393546  0.21270949  0.42152869    -0.86000
O1000       O  0.97197247  0.17668747  0.47627961    -0.85700
O1001       O  0.03910409  0.21548501  0.43888084    -0.72400
O1002       O  0.01735625  0.18050487  0.48784756    -0.84600
Zr1003     Zr  0.99605345  0.14767868  0.39006002     2.26400
Zr1004     Zr  0.02298959  0.21394862  0.38269435     2.06300
Zr1005     Zr  0.98004595  0.14452778  0.48430521     2.10000
Zr1006     Zr  0.95700581  0.17697459  0.42037128     1.78800
O1007       O  0.99050816  0.11867144  0.51952961    -0.93400
O1008       O  0.94869044  0.20054655  0.37692244    -0.41200
O1009       O  0.96513928  0.14458069  0.42763583    -0.77800
O1010       O  0.98546367  0.17840916  0.38013652    -0.96500
O1011       O  0.03305672  0.18325096  0.39205054    -0.89800
O1012       O  0.01008020  0.14718437  0.44677160    -0.92700
C1013       C  0.95739086  0.21686750  0.47537572     1.01100
C1014       C  0.99860733  0.17815255  0.55526930     1.14000
C1015       C  0.03863380  0.26438286  0.42492321     1.04800
O1016       O  0.01854888  0.23929943  0.33770082    -0.94800
O1017       O  0.01864551  0.20106422  0.32471896    -0.90600
O1018       O  0.00078932  0.16091978  0.32916295    -0.83700
C1019       C  0.00937970  0.18091913  0.31165620     1.11400
O1020       O  0.07920129  0.21396224  0.48036612    -0.96800
Zr1021     Zr  0.04689002  0.18326962  0.44914902     1.88900
O1022       O  0.02456268  0.13258808  0.39237159    -0.73400
O1023       O  0.06498616  0.23252401  0.36699272    -0.52700
O1024       O  0.08296110  0.20419178  0.41377695    -0.97400
O1025       O  0.05552559  0.16563072  0.50069197    -0.54600
O1026       O  0.05442051  0.15350326  0.42884367    -0.74000
C1027       C  0.04370286  0.13679747  0.40866019     0.98400
O1028       O  0.98097036  0.12268168  0.34155291    -0.62800
O1029       O  0.94031601  0.12652422  0.51001859    -0.57600
O1030       O  0.96733783  0.10728256  0.40755811    -0.94300
O1031       O  0.95880453  0.10436109  0.46441973    -0.92700
O1032       O  0.91963865  0.14974256  0.45029418    -0.93000
O1033       O  0.92623832  0.15341053  0.38042429    -0.91800
C1034       C  0.95699138  0.09529666  0.43542616     1.17200
H1035       H  0.96130074  0.17577256  0.49403897     0.33200
H1036       H  0.97849950  0.17766363  0.35786684     0.44000
H1037       H  0.01176876  0.13342145  0.45251585     0.37600
H1038       H  0.05375639  0.23018101  0.44080772     0.34000
H1039       H  0.93441700  0.20056863  0.38569925     0.25800
H1040       H  0.06563976  0.23727519  0.34219904     0.31800
H1041       H  0.09424617  0.19963977  0.42461082     0.37700
H1042       H  0.92149820  0.15488200  0.47400989     0.32100
H1043       H  0.93915215  0.11336894  0.52572016     0.31000
H1044       H  0.97806344  0.11132740  0.53778753     0.32700
H1045       H  0.04256199  0.14896463  0.50227714     0.31700
H1046       H  0.93275958  0.14472894  0.36875363     0.35700
H1047       H  0.98466829  0.10971303  0.34659319     0.28400
H1048       H  0.02662110  0.25179461  0.52040680     0.32600
H1049       H  0.09107578  0.20862756  0.48417736     0.35500
H1050       H  0.94078620  0.13817631  0.52548545     0.28100
H1051       H  0.96340514  0.11502771  0.34311554     0.40900
H1052       H  0.00138381  0.23430803  0.33808119     0.31000
H1053       H  0.96174814  0.21696450  0.37888096     0.38600
H1054       H  0.05222345  0.17277254  0.52000801     0.30500
H1055       H  0.07257716  0.24764672  0.37833612     0.30500
H1056       H  0.04795141  0.24700377  0.51520802     0.30800
Zr1057     Zr  0.86183937  0.86786456  0.97366038     2.17500
O1058       O  0.86526532  0.89942281  0.00747026    -0.51600
O1059       O  0.90503563  0.88282215  0.97392407    -0.74800
O1060       O  0.86064245  0.85557535  0.03485741    -0.81500
O1061       O  0.86447062  0.90920208  0.89730738    -0.83300
O1062       O  0.83794648  0.81561096  0.03975011    -0.78900
O1063       O  0.87594425  0.90829218  0.95257604    -0.90600
O1064       O  0.91295327  0.86284278  0.93529860    -0.76500
O1065       O  0.86450774  0.83282099  0.97157846    -0.86000
O1066       O  0.87375933  0.86782140  0.91648828    -0.85700
O1067       O  0.82195097  0.83644958  0.98676328    -0.72400
O1068       O  0.83133502  0.86814001  0.93715725    -0.84600
Zr1069     Zr  0.80760042  0.80044203  0.88929392     2.26400
Zr1070     Zr  0.82487357  0.80142066  0.98340721     2.06300
Zr1071     Zr  0.84396724  0.86831382  0.88004156     2.10000
Zr1072     Zr  0.87610324  0.83257871  0.91418008     1.78800
O1073       O  0.82021700  0.88577364  0.85775781    -0.93400
O1074       O  0.89448126  0.81197403  0.94512845    -0.41200
O1075       O  0.84666896  0.83301700  0.87666239    -0.77800
O1076       O  0.83738823  0.79979201  0.92670915    -0.96500
O1077       O  0.79457133  0.80029427  0.94600576    -0.89800
O1078       O  0.80481859  0.83573470  0.89124021    -0.92700
C1079       C  0.91933827  0.87912700  0.95615950     1.01100
C1080       C  0.87502233  0.91929665  0.92463842     1.14000
C1081       C  0.85034632  0.83564369  0.05275696     1.04800
O1082       O  0.84535539  0.78141594  0.00924252    -0.94800
O1083       O  0.80403485  0.76078315  0.96936558    -0.90600
O1084       O  0.79136743  0.75932942  0.91420119    -0.83700
C1085       C  0.79295648  0.74954159  0.94331238     1.11400
O1086       O  0.78673574  0.85750722  0.99197308    -0.96800
Zr1087     Zr  0.79192539  0.83528840  0.94817706     1.88900
O1088       O  0.76651744  0.79048111  0.87996646    -0.73400
O1089       O  0.79043933  0.78054998  0.02195598    -0.52700
O1090       O  0.76333183  0.80889034  0.99242415    -0.97400
O1091       O  0.77817184  0.86227551  0.92549947    -0.54600
O1092       O  0.75638673  0.81030965  0.91559085    -0.74000
C1093       C  0.75148662  0.79569814  0.89203816     0.98400
O1094       O  0.80427667  0.77334353  0.84654225    -0.62800
O1095       O  0.87645434  0.89165351  0.83891519    -0.57600
O1096       O  0.81539118  0.81340035  0.82819782    -0.94300
O1097       O  0.83483271  0.85363143  0.82298926    -0.92700
O1098       O  0.90052612  0.85260677  0.86294767    -0.93000
O1099       O  0.87956064  0.80463111  0.87953315    -0.91800
C1100       C  0.82517195  0.83333128  0.81020578     1.17200
H1101       H  0.88869142  0.88175412  0.91032938     0.33200
H1102       H  0.83815889  0.78545510  0.92477398     0.44000
H1103       H  0.79408487  0.83646744  0.87420470     0.37600
H1104       H  0.81726758  0.83750188  0.00965984     0.34000
H1105       H  0.91105376  0.81987257  0.93618209     0.25800
H1106       H  0.79399362  0.76987718  0.03714060     0.31800
H1107       H  0.75572398  0.79302599  0.98321950     0.37700
H1108       H  0.91654922  0.85510186  0.86888381     0.32100
H1109       H  0.88878972  0.90484067  0.85145779     0.31000
H1110       H  0.83074213  0.89839769  0.84057359     0.32700
H1111       H  0.76059852  0.85263273  0.92561298     0.31700
H1112       H  0.86453612  0.79725167  0.86660932     0.35700
H1113       H  0.81474250  0.76694101  0.85467186     0.28400
H1114       H  0.87909186  0.90332251  0.02247052     0.32600
H1115       H  0.76952119  0.85231944  0.99256470     0.35500
H1116       H  0.88353581  0.88149634  0.83519401     0.28100
H1117       H  0.78790248  0.75978339  0.84892667     0.40900
H1118       H  0.85665261  0.78291441  0.99119082     0.31000
H1119       H  0.89601293  0.81673759  0.96902678     0.38600
H1120       H  0.78276904  0.86528443  0.90087214     0.30500
H1121       H  0.79133432  0.79256658  0.03709065     0.30500
H1122       H  0.85105196  0.89197726  0.02276075     0.30800
Zr1123     Zr  0.86077859  0.86580357  0.47321592     2.17500
O1124       O  0.86720679  0.89683289  0.51094894    -0.51600
O1125       O  0.90366584  0.87932249  0.47598342    -0.74800
O1126       O  0.85500158  0.85299294  0.53469312    -0.81500
O1127       O  0.86872022  0.90739431  0.39394923    -0.83300
O1128       O  0.82870057  0.81368461  0.53990515    -0.78900
O1129       O  0.87257121  0.90587562  0.45177607    -0.90600
O1130       O  0.91120928  0.85393199  0.44852787    -0.76500
O1131       O  0.85975022  0.82862414  0.47594023    -0.86000
O1132       O  0.87644507  0.86396775  0.41945608    -0.85700
O1133       O  0.81913849  0.83730240  0.48084916    -0.72400
O1134       O  0.83498801  0.86858247  0.42980987    -0.84600
Zr1135     Zr  0.80883024  0.79945082  0.38576286     2.26400
Zr1136     Zr  0.81837567  0.80012303  0.48258001     2.06300
Zr1137     Zr  0.85110930  0.86665810  0.37630278     2.10000
Zr1138     Zr  0.87494692  0.82659410  0.42177916     1.78800
O1139       O  0.83102587  0.88339440  0.34053434    -0.93400
O1140       O  0.88943192  0.80247027  0.45283840    -0.41200
O1141       O  0.84992528  0.82918169  0.37802062    -0.77800
O1142       O  0.83422280  0.79641395  0.42970710    -0.96500
O1143       O  0.79249730  0.80154246  0.43866222    -0.89800
O1144       O  0.81010632  0.83692360  0.38229371    -0.92700
C1145       C  0.91781941  0.87257465  0.46466907     1.01100
C1146       C  0.87472012  0.91729758  0.42270903     1.14000
C1147       C  0.84218540  0.83354742  0.55276485     1.04800
O1148       O  0.83349551  0.77647930  0.51314000    -0.94800
O1149       O  0.79411543  0.75959548  0.46932577    -0.90600
O1150       O  0.78994087  0.75846079  0.41128306    -0.83700
C1151       C  0.78656034  0.74855377  0.44193020     1.11400
O1152       O  0.78541926  0.86181480  0.47398411    -0.96800
Zr1153     Zr  0.79386600  0.83873820  0.43550491     1.88900
O1154       O  0.76962800  0.79316451  0.36808561    -0.73400
O1155       O  0.78184810  0.78299849  0.51695086    -0.52700
O1156       O  0.76047137  0.81327243  0.47414361    -0.97400
O1157       O  0.78687892  0.86940938  0.40748737    -0.54600
O1158       O  0.76122486  0.81738624  0.39657671    -0.74000
C1159       C  0.75593222  0.80153623  0.37500893     0.98400
O1160       O  0.80293163  0.77048363  0.34455336    -0.62800
O1161       O  0.88846213  0.89104409  0.34452104    -0.57600
O1162       O  0.82222513  0.81085283  0.32620455    -0.94300
O1163       O  0.84857037  0.85037407  0.32102560    -0.92700
O1164       O  0.90306881  0.84601807  0.37388559    -0.93000
O1165       O  0.87706266  0.79689283  0.38957033    -0.91800
C1166       C  0.83662284  0.82996616  0.30871360     1.17200
H1167       H  0.89224334  0.87700081  0.41476520     0.33200
H1168       H  0.83369500  0.78130121  0.42990743     0.44000
H1169       H  0.80145113  0.83855946  0.36277982     0.37600
H1170       H  0.81326950  0.83922208  0.50228564     0.34000
H1171       H  0.90653008  0.81009319  0.44650590     0.25800
H1172       H  0.78454321  0.77432202  0.53681781     0.31800
H1173       H  0.75209027  0.79790385  0.46349843     0.37700
H1174       H  0.91300556  0.86268389  0.37962893     0.32100
H1175       H  0.88595671  0.90289410  0.33051579     0.31000
H1176       H  0.84273386  0.89324006  0.32213848     0.32700
H1177       H  0.76935491  0.86208271  0.40606845     0.31700
H1178       H  0.86543288  0.79372515  0.37093421     0.35700
H1179       H  0.80986946  0.76094968  0.35492968     0.28400
H1180       H  0.87920649  0.89765353  0.52784341     0.32600
H1181       H  0.76820363  0.85637872  0.47178453     0.35500
H1182       H  0.90029876  0.90030397  0.36174971     0.28100
H1183       H  0.78555132  0.75953368  0.34432691     0.40900
H1184       H  0.84346600  0.77471242  0.49591815     0.31000
H1185       H  0.88928430  0.80561872  0.47727659     0.38600
H1186       H  0.79227294  0.87098155  0.38341059     0.30500
H1187       H  0.78179382  0.79659854  0.52680506     0.30500
H1188       H  0.85222969  0.89079183  0.52433335     0.30800
C1189       C  0.82675338  0.83302572  0.77225528    -0.12200
C1190       C  0.82581762  0.85037711  0.74932929     0.03300
C1191       C  0.82963943  0.85064902  0.71399001    -0.12700
C1192       C  0.83434993  0.83384875  0.70074660     0.18100
C1193       C  0.83514887  0.81647187  0.72340552    -0.09800
C1194       C  0.83118005  0.81603398  0.75870956    -0.02700
H1195       H  0.82855054  0.86381298  0.69664925     0.04700
C1196       C  0.83677879  0.83373324  0.66303371     0.20100
H1197       H  0.83227862  0.80275220  0.77575951     0.09800
C1198       C  0.85854134  0.84908880  0.64616681    -0.16100
C1199       C  0.86106738  0.84920097  0.61040656     0.02800
C1200       C  0.84142882  0.83386071  0.59087938    -0.11400
C1201       C  0.81977787  0.81843635  0.60817693    -0.01500
C1202       C  0.81735126  0.81833254  0.64371198    -0.06600
H1203       H  0.87367038  0.86085232  0.66093722     0.05800
H1204       H  0.80438104  0.80662610  0.59388535     0.09200
Br1205     Br  0.84225860  0.79341306  0.70720871    -0.06300
Br1206     Br  0.81797709  0.87328088  0.76427101    -0.03300
Br1207     Br  0.89203071  0.86955018  0.59028604    -0.00400
Br1208     Br  0.78691169  0.79718175  0.66476516    -0.04800
C1209       C  0.83993496  0.82840738  0.27191982    -0.12200
C1210       C  0.82035302  0.81691983  0.25015201     0.03300
C1211       C  0.82417368  0.81693868  0.21508694    -0.12700
C1212       C  0.84725269  0.82821260  0.20117001     0.18100
C1213       C  0.86686771  0.83934355  0.22277735    -0.09800
C1214       C  0.86311581  0.83935937  0.25796137    -0.02700
H1215       H  0.80903262  0.80884625  0.19832822     0.04700
C1216       C  0.85020305  0.83033184  0.16360230     0.20100
H1217       H  0.87831588  0.84812708  0.27442023     0.09800
C1218       C  0.85635142  0.85207884  0.14617425    -0.16100
C1219       C  0.85714780  0.85461646  0.11034254     0.02800
C1220       C  0.85194349  0.83500445  0.09098364    -0.11400
C1221       C  0.84609515  0.81320286  0.10902711    -0.01500
C1222       C  0.84501058  0.81074130  0.14490829    -0.06600
H1223       H  0.85978213  0.86704754  0.16067938     0.05800
H1224       H  0.84189983  0.79774967  0.09524479     0.09200
Br1225     Br  0.89889643  0.85497640  0.20502030    -0.06300
Br1226     Br  0.78798778  0.80289308  0.26591808    -0.03300
Br1227     Br  0.86355726  0.88499619  0.09107136    -0.00400
Br1228     Br  0.83610854  0.78030643  0.16738123    -0.04800
C1229       C  0.94326177  0.06921910  0.43350981    -0.12200
C1230       C  0.92177341  0.05462305  0.45185742     0.03300
C1231       C  0.91035301  0.02996662  0.44985586    -0.12700
C1232       C  0.91995455  0.01951025  0.42964329     0.18100
C1233       C  0.94107752  0.03411471  0.41073022    -0.09800
C1234       C  0.95239648  0.05864509  0.41258912    -0.02700
H1235       H  0.89384612  0.01888747  0.46398733     0.04700
C1236       C  0.90773704  0.99340701  0.42823209     0.20100
H1237       H  0.96886734  0.06949384  0.39823691     0.09800
C1238       C  0.89644973  0.98311566  0.39795108    -0.16100
C1239       C  0.88521914  0.95853982  0.39529107     0.02800
C1240       C  0.88541547  0.94360663  0.42342499    -0.11400
C1241       C  0.89667891  0.95426020  0.45383661    -0.01500
C1242       C  0.90764029  0.97871648  0.45640724    -0.06600
H1243       H  0.89633130  0.99434664  0.37620219     0.05800
H1244       H  0.89738915  0.94360481  0.47591348     0.09200
Br1245     Br  0.95583100  0.02130179  0.38335251    -0.06300
Br1246     Br  0.90652459  0.06745296  0.47810545    -0.03300
Br1247     Br  0.86943920  0.94712639  0.35285921    -0.00400
Br1248     Br  0.92307035  0.99123838  0.49861369    -0.04800
C1249       C  0.01904890  0.17961388  0.77401334    -0.12200
C1250       C  0.01898422  0.16114688  0.75669867     0.03300
C1251       C  0.01651787  0.16078625  0.72084080    -0.12700
C1252       C  0.01471300  0.17886351  0.70163653     0.18100
C1253       C  0.01558458  0.19762639  0.71861826    -0.09800
C1254       C  0.01774681  0.19790585  0.75430374    -0.02700
H1255       H  0.01615932  0.14642682  0.70783483     0.04700
C1256       C  0.01113519  0.17773993  0.66405303     0.20100
H1257       H  0.01763263  0.21223480  0.76674910     0.09800
C1258       C  0.98829952  0.16318825  0.65162776    -0.16100
C1259       C  0.98373087  0.16327939  0.61636486     0.02800
C1260       C  0.00221653  0.17825796  0.59286216    -0.11400
C1261       C  0.02509689  0.19274677  0.60541192    -0.01500
C1262       C  0.02971245  0.19231775  0.64061512    -0.06600
H1263       H  0.97385404  0.15210342  0.66953156     0.05800
H1264       H  0.03958739  0.20400718  0.58766821     0.09200
Br1265     Br  0.01270493  0.22272534  0.69419960    -0.06300
Br1266     Br  0.02369731  0.13681140  0.77994177    -0.03300
Br1267     Br  0.95162289  0.14382158  0.60205864    -0.00400
Br1268     Br  0.06173564  0.21135900  0.65556389    -0.04800
C1269       C  0.99788631  0.18249157  0.09145771    -0.12200
C1270       C  0.99957226  0.20160034  0.10909820     0.03300
C1271       C  0.00129711  0.20125275  0.14502801    -0.12700
C1272       C  0.00136249  0.18219221  0.16397647     0.18100
C1273       C  0.99956877  0.16316217  0.14666166    -0.09800
C1274       C  0.99771822  0.16333863  0.11085579    -0.02700
H1275       H  0.00256748  0.21592111  0.15829710     0.04700
C1276       C  0.00363453  0.18244973  0.20179100     0.20100
H1277       H  0.99665910  0.14858435  0.09808755     0.09800
C1278       C  0.98307407  0.17155638  0.22265875    -0.16100
C1279       C  0.98475266  0.17070789  0.25853447     0.02800
C1280       C  0.00726954  0.18078702  0.27398157    -0.11400
C1281       C  0.02782528  0.19208696  0.25310419    -0.01500
C1282       C  0.02612428  0.19284911  0.21721370    -0.06600
H1283       H  0.96569969  0.16373578  0.21098666     0.05800
H1284       H  0.04521066  0.20020054  0.26474367     0.09200
Br1285     Br  0.00033451  0.13690828  0.17100632    -0.06300
Br1286     Br  0.99831810  0.22809927  0.08632542    -0.03300
Br1287     Br  0.95590686  0.15696522  0.28549511    -0.00400
Br1288     Br  0.05485029  0.20799447  0.19001056    -0.04800
C1289       C  0.94688653  0.06996795  0.93714859    -0.12200
C1290       C  0.95317660  0.05794988  0.91396843     0.03300
C1291       C  0.93926727  0.03357176  0.91223067    -0.12700
C1292       C  0.91890850  0.02044192  0.93282740     0.18100
C1293       C  0.91241643  0.03207927  0.95597134    -0.09800
C1294       C  0.92648203  0.05665770  0.95816686    -0.02700
H1295       H  0.94456865  0.02462786  0.89483322     0.04700
C1296       C  0.90652881  0.99442187  0.93156772     0.20100
H1297       H  0.92120888  0.06541908  0.97589331     0.09800
C1298       C  0.91866055  0.98257615  0.94364056    -0.16100
C1299       C  0.90902634  0.95835544  0.94060730     0.02800
C1300       C  0.88675057  0.94536471  0.92486799    -0.11400
C1301       C  0.87484107  0.95735419  0.91189996    -0.01500
C1302       C  0.88449599  0.98170722  0.91534311    -0.06600
H1303       H  0.93593419  0.99236036  0.95527371     0.05800
H1304       H  0.85770782  0.94765744  0.89989764     0.09200
Br1305     Br  0.88474804  0.01510233  0.98515400    -0.06300
Br1306     Br  0.98101569  0.07285562  0.88462860    -0.03300
Br1307     Br  0.92781647  0.94447199  0.95745846    -0.00400
Br1308     Br  0.86718701  0.99686107  0.89723134    -0.04800
C1309       C  0.06891449  0.95586510  0.43527017    -0.12200
C1310       C  0.05630202  0.96364804  0.45501717     0.03300
C1311       C  0.03191234  0.94929586  0.46080971    -0.12700
C1312       C  0.01933702  0.92738606  0.44643982     0.18100
C1313       C  0.03152144  0.92029878  0.42457512    -0.09800
C1314       C  0.05620807  0.93439337  0.41953083    -0.02700
H1315       H  0.02259851  0.95539050  0.47647080     0.04700
C1316       C  0.99334807  0.91328622  0.45327566     0.20100
H1317       H  0.06552389  0.92841462  0.40367447     0.09800
C1318       C  0.97907478  0.92330417  0.44324712    -0.16100
C1319       C  0.95459899  0.91118556  0.45010671     0.02800
C1320       C  0.94377094  0.88818911  0.46640784    -0.11400
C1321       C  0.95815373  0.87845014  0.47743285    -0.01500
C1322       C  0.98284454  0.89109073  0.47193009    -0.06600
H1323       H  0.98704234  0.94065538  0.42975823     0.05800
H1324       H  0.95008276  0.86081877  0.49002414     0.09200
Br1325     Br  0.01522210  0.89235654  0.39962345    -0.06300
Br1326     Br  0.07088353  0.99438958  0.47288913    -0.03300
Br1327     Br  0.93677380  0.92638927  0.43440414    -0.00400
Br1328     Br  0.00148551  0.87789392  0.49191515    -0.04800
C1329       C  0.11493271  0.05713262  0.44554188    -0.12200
C1330       C  0.10415857  0.06227596  0.47221623     0.03300
C1331       C  0.08895227  0.07162676  0.46406910    -0.12700
C1332       C  0.08378463  0.07520873  0.42965420     0.18100
C1333       C  0.09299501  0.06815082  0.40340754    -0.09800
C1334       C  0.10843628  0.05935265  0.41143243    -0.02700
H1335       H  0.08193510  0.07702343  0.48449916     0.04700
C1336       C  0.07242069  0.08987668  0.42100126     0.20100
H1337       H  0.11582720  0.05461457  0.39065996     0.09800
C1338       C  0.08720879  0.11371882  0.41024453    -0.16100
C1339       C  0.07793267  0.12896987  0.40369907     0.02800
C1340       C  0.05326223  0.12036090  0.40710569    -0.11400
C1341       C  0.03825462  0.09616436  0.41613675    -0.01500
C1342       C  0.04767707  0.08097002  0.42344346    -0.06600
H1343       H  0.10623772  0.12066996  0.40790999     0.05800
H1344       H  0.01932603  0.08936794  0.41961654     0.09200
Br1345     Br  0.08580263  0.07121776  0.35599569    -0.06300
Br1346     Br  0.11068894  0.05821310  0.51956643    -0.03300
Br1347     Br  0.09990221  0.16157258  0.39105948    -0.00400
Br1348     Br  0.02628049  0.04856882  0.43784181    -0.04800
C1349       C  0.18722552  0.01961453  0.77352138    -0.12200
C1350       C  0.20244448  0.01619240  0.75197075     0.03300
C1351       C  0.20078249  0.01871546  0.71618231    -0.12700
C1352       C  0.18448416  0.02503287  0.70153624     0.18100
C1353       C  0.16995002  0.02921460  0.72299678    -0.09800
C1354       C  0.17136131  0.02645617  0.75858806    -0.02700
H1355       H  0.21192106  0.01532585  0.69969112     0.04700
C1356       C  0.18168692  0.02564607  0.66391191     0.20100
H1357       H  0.15978441  0.02947540  0.77472990     0.09800
C1358       C  0.16585632  0.00470428  0.64886378    -0.16100
C1359       C  0.16313566  0.00423535  0.61323156     0.02800
C1360       C  0.17638075  0.02505615  0.59198886    -0.11400
C1361       C  0.19198825  0.04615945  0.60723667    -0.01500
C1362       C  0.19460891  0.04658408  0.64297627    -0.06600
H1363       H  0.15599398  0.98850419  0.66491131     0.05800
H1364       H  0.20259924  0.06220582  0.59122730     0.09200
Br1365     Br  0.14735377  0.03797353  0.70479635    -0.06300
Br1366     Br  0.22465038  0.00664932  0.76967248    -0.03300
Br1367     Br  0.14313219  0.97411889  0.59494902    -0.00400
Br1368     Br  0.21651466  0.07578424  0.66221114    -0.04800
C1369       C  0.18039996  0.01465337  0.09292313    -0.12200
C1370       C  0.18782325  0.99998962  0.11133912     0.03300
C1371       C  0.18849604  0.99933467  0.14717506    -0.12700
C1372       C  0.18224159  0.01335723  0.16531201     0.18100
C1373       C  0.17548276  0.02852784  0.14702459    -0.09800
C1374       C  0.17418887  0.02877229  0.11106715    -0.02700
H1375       H  0.19385422  0.98773462  0.16103295     0.04700
C1376       C  0.18292075  0.01170266  0.20328713     0.20100
H1377       H  0.16914506  0.04060222  0.09719446     0.09800
C1378       C  0.20480545  0.01940967  0.21961823    -0.16100
C1379       C  0.20613387  0.01720385  0.25550114     0.02800
C1380       C  0.18507002  0.00726771  0.27600791    -0.11400
C1381       C  0.16312526  0.99901695  0.25898757    -0.01500
C1382       C  0.16192972  0.00110372  0.22325833    -0.06600
H1383       H  0.22100033  0.02705961  0.20422658     0.05800
H1384       H  0.14652214  0.99088617  0.27341769     0.09200
Br1385     Br  0.16936182  0.05018184  0.17003161    -0.06300
Br1386     Br  0.19659392  0.97986255  0.08915042    -0.03300
Br1387     Br  0.23730714  0.02733772  0.27349295    -0.00400
Br1388     Br  0.13104511  0.98872528  0.20303209    -0.04800
C1389       C  0.94500337  0.89570836  0.95630419    -0.12200
C1390       C  0.95591059  0.91071914  0.92667186     0.03300
C1391       C  0.98059764  0.92292990  0.92305548    -0.12700
C1392       C  0.99490240  0.92026718  0.94838098     0.18100
C1393       C  0.98408634  0.90582950  0.97865399    -0.09800
C1394       C  0.95921909  0.89360733  0.98237033    -0.02700
H1395       H  0.98869658  0.93443191  0.90015652     0.04700
C1396       C  0.02105390  0.93379549  0.94337978     0.20100
H1397       H  0.95097824  0.88167567  0.00483937     0.09800
C1398       C  0.03438937  0.95158902  0.96546961    -0.16100
C1399       C  0.05904763  0.96514095  0.96185342     0.02800
C1400       C  0.07111663  0.96076656  0.93575630    -0.11400
C1401       C  0.05754626  0.94370024  0.91242888    -0.01500
C1402       C  0.03269657  0.93034702  0.91592278    -0.06600
H1403       H  0.02544741  0.95514744  0.98554348     0.05800
H1404       H  0.06629899  0.94031895  0.89190519     0.09200
Br1405     Br  0.00232244  0.90099662  0.01454446    -0.06300
Br1406     Br  0.93784467  0.91480123  0.88977949    -0.03300
Br1407     Br  0.07445386  0.99020590  0.99245395    -0.00400
Br1408     Br  0.01559095  0.90721504  0.88317627    -0.04800
C1409       C  0.05190311  0.11678868  0.91391048    -0.12200
C1410       C  0.04234657  0.09716790  0.93822487     0.03300
C1411       C  0.05452093  0.08461259  0.94584571    -0.12700
C1412       C  0.07657921  0.09169488  0.93026882     0.18100
C1413       C  0.08575895  0.11073865  0.90507506    -0.09800
C1414       C  0.07343936  0.12314522  0.89711927    -0.02700
H1415       H  0.04735994  0.07003567  0.96530531     0.04700
C1416       C  0.09022592  0.07967748  0.94160389     0.20100
H1417       H  0.08135169  0.13860473  0.87921156     0.09800
C1418       C  0.08480294  0.05832739  0.92790972    -0.16100
C1419       C  0.09885575  0.04774023  0.93521441     0.02800
C1420       C  0.11805045  0.05779826  0.95815011    -0.11400
C1421       C  0.12302176  0.07887485  0.97267215    -0.01500
C1422       C  0.10937149  0.08988940  0.96440864    -0.06600
H1423       H  0.07046786  0.05064484  0.90975202     0.05800
H1424       H  0.13833365  0.08745522  0.98898280     0.09200
Br1425     Br  0.11578382  0.12127682  0.88256529    -0.06300
Br1426     Br  0.01426225  0.08859870  0.96485774    -0.03300
Br1427     Br  0.09318479  0.02189575  0.90854673    -0.00400
Br1428     Br  0.11835500  0.11961571  0.98304273    -0.04800
C1429       C  0.72728605  0.78486187  0.87659477    -0.12200
C1430       C  0.71731755  0.76321998  0.86027074     0.03300
C1431       C  0.69541448  0.75475342  0.84373060    -0.12700
C1432       C  0.68271087  0.76708222  0.84328639     0.18100
C1433       C  0.69223454  0.78832945  0.85996376    -0.09800
C1434       C  0.71425946  0.79701999  0.87638873    -0.02700
H1435       H  0.68807182  0.73822665  0.83134797     0.04700
C1436       C  0.65938175  0.75706599  0.82575800     0.20100
H1437       H  0.72145907  0.81367961  0.88835646     0.09800
C1438       C  0.63829891  0.74447693  0.84530999    -0.16100
C1439       C  0.61609031  0.73304855  0.82941474     0.02800
C1440       C  0.61461572  0.73432995  0.79310825    -0.11400
C1441       C  0.63575184  0.74760441  0.77368810    -0.01500
C1442       C  0.65796857  0.75858666  0.78966894    -0.06600
H1443       H  0.63917021  0.74314217  0.87308806     0.05800
H1444       H  0.63507094  0.74872469  0.74588885     0.09200
Br1445     Br  0.67617545  0.80648691  0.85980256    -0.06300
Br1446     Br  0.73162705  0.74333454  0.86096582    -0.03300
Br1447     Br  0.58844164  0.71644599  0.85883048    -0.00400
Br1448     Br  0.68607135  0.77502025  0.76126326    -0.04800
C1449       C  0.51070479  0.67649015  0.38372451    -0.12200
C1450       C  0.48794625  0.66208886  0.39900353     0.03300
C1451       C  0.48503106  0.66059430  0.43463445    -0.12700
C1452       C  0.50444161  0.67336428  0.45557703     0.18100
C1453       C  0.52727514  0.68735454  0.44057267    -0.09800
C1454       C  0.53028236  0.68877975  0.40483076    -0.02700
H1455       H  0.46751645  0.64944426  0.44609632     0.04700
C1456       C  0.50056206  0.67120396  0.49311483     0.20100
H1457       H  0.54782773  0.69987335  0.39345791     0.09800
C1458       C  0.49740565  0.65070547  0.51191700    -0.16100
C1459       C  0.49496705  0.64855756  0.54770954     0.02800
C1460       C  0.49583847  0.66722429  0.56520563    -0.11400
C1461       C  0.49745249  0.68708327  0.54612922    -0.01500
C1462       C  0.49967955  0.68910588  0.51027227    -0.06600
H1463       H  0.49718937  0.63648111  0.49871349     0.05800
H1464       H  0.49789708  0.70146383  0.55919795     0.09200
Br1465     Br  0.55477758  0.70451855  0.46799370    -0.06300
Br1466     Br  0.46032916  0.64318582  0.37270173    -0.03300
Br1467     Br  0.48979361  0.61953986  0.57141168    -0.00400
Br1468     Br  0.50140456  0.71648325  0.48569306    -0.04800
C1469       C  0.50070938  0.66423267  0.06499432    -0.12200
C1470       C  0.48145666  0.66041727  0.04333980     0.03300
C1471       C  0.48439551  0.66189939  0.00747014    -0.12700
C1472       C  0.50598546  0.66631951  0.99276825     0.18100
C1473       C  0.52469050  0.66890723  0.01416936    -0.09800
C1474       C  0.52207049  0.66807985  0.04971898    -0.02700
H1475       H  0.46971164  0.65931255  0.99097705     0.04700
C1476       C  0.50918401  0.66874911  0.95506548     0.20100
H1477       H  0.53711744  0.67080625  0.06545125     0.09800
C1478       C  0.51862885  0.69128922  0.93817127    -0.16100
C1479       C  0.52261542  0.69448421  0.90264343     0.02800
C1480       C  0.51724651  0.67490738  0.88345647    -0.11400
C1481       C  0.50856640  0.65243478  0.90057638    -0.01500
C1482       C  0.50442872  0.64925908  0.93618536    -0.06600
H1483       H  0.52297333  0.70646299  0.95274106     0.05800
H1484       H  0.50426678  0.63723032  0.88610115     0.09200
Br1485     Br  0.55419887  0.67367135  0.99570756    -0.06300
Br1486     Br  0.45032453  0.65109001  0.06088892    -0.03300
Br1487     Br  0.53613794  0.72606301  0.88170511    -0.00400
Br1488     Br  0.49208014  0.61812635  0.95820983    -0.04800
C1489       C  0.61739308  0.73751266  0.27996114    -0.12200
C1490       C  0.63584480  0.75844524  0.26296013     0.03300
C1491       C  0.65890169  0.76957246  0.27659252    -0.12700
C1492       C  0.66438082  0.76017827  0.30660449     0.18100
C1493       C  0.64649126  0.73902700  0.32276825    -0.09800
C1494       C  0.62340818  0.72809648  0.30977061    -0.02700
H1495       H  0.67267970  0.78569806  0.26368230     0.04700
C1496       C  0.68851438  0.77273402  0.32169606     0.20100
H1497       H  0.61013993  0.71193119  0.32322416     0.09800
C1498       C  0.69138387  0.78391132  0.35227131    -0.16100
C1499       C  0.71299970  0.79361157  0.36979189     0.02800
C1500       C  0.73267787  0.79236441  0.35665639    -0.11400
C1501       C  0.72977517  0.78156696  0.32537589    -0.01500
C1502       C  0.70807064  0.77199101  0.30788950    -0.06600
H1503       H  0.67635672  0.78441077  0.36320995     0.05800
H1504       H  0.74438159  0.78033377  0.31451257     0.09200
Br1505     Br  0.65310504  0.72392357  0.36215553    -0.06300
Br1506     Br  0.63163279  0.77283307  0.22066891    -0.03300
Br1507     Br  0.71317626  0.80639382  0.41283961    -0.00400
Br1508     Br  0.70552377  0.75723679  0.26589435    -0.04800
C1509       C  0.27735170  0.56470619  0.72826353    -0.12200
C1510       C  0.29388455  0.57193576  0.75555845     0.03300
C1511       C  0.31844958  0.58492834  0.74826957    -0.12700
C1512       C  0.32712944  0.59132522  0.71429770     0.18100
C1513       C  0.31088733  0.58474400  0.68729102    -0.09800
C1514       C  0.28647713  0.57148267  0.69428374    -0.02700
H1515       H  0.33089853  0.58995516  0.76925723     0.04700
C1516       C  0.35310217  0.60354318  0.70702882     0.20100
H1517       H  0.27460469  0.56663087  0.67263902     0.09800
C1518       C  0.36279360  0.59100041  0.69227012    -0.16100
C1519       C  0.38722266  0.60155762  0.68545453     0.02800
C1520       C  0.40242183  0.62530255  0.69261840    -0.11400
C1521       C  0.39264352  0.63807275  0.70653302    -0.01500
C1522       C  0.36824241  0.62732080  0.71413482    -0.06600
H1523       H  0.35132154  0.57269726  0.68674498     0.05800
H1524       H  0.40423854  0.65600140  0.71361807     0.09200
Br1525     Br  0.32129294  0.59422916  0.64025924    -0.06300
Br1526     Br  0.28481041  0.56534076  0.80335425    -0.03300
Br1527     Br  0.39911051  0.58259528  0.66739318    -0.00400
Br1528     Br  0.35660002  0.64551993  0.73524164    -0.04800
C1529       C  0.05995278  0.29142201  0.91524813    -0.12200
C1530       C  0.05056630  0.30278217  0.89334464     0.03300
C1531       C  0.06550522  0.32547775  0.87876904    -0.12700
C1532       C  0.08996069  0.33701810  0.88519537     0.18100
C1533       C  0.09907098  0.32656364  0.90949273    -0.09800
C1534       C  0.08402066  0.30372303  0.92418223    -0.02700
H1535       H  0.05823429  0.33369179  0.86089274     0.04700
C1536       C  0.10542086  0.35939246  0.86499955     0.20100
H1537       H  0.09145615  0.29495165  0.94062293     0.09800
C1538       C  0.11666505  0.38052914  0.88157166    -0.16100
C1539       C  0.12871775  0.40227117  0.86264503     0.02800
C1540       C  0.12952199  0.40309751  0.82637524    -0.11400
C1541       C  0.11938044  0.38185813  0.80987926    -0.01500
C1542       C  0.10730217  0.36008167  0.82888587    -0.06600
H1543       H  0.11539449  0.38015452  0.90928327     0.05800
H1544       H  0.11983140  0.38221915  0.78208011     0.09200
Br1545     Br  0.13212273  0.34185507  0.92110358    -0.06300
Br1546     Br  0.01779412  0.28707979  0.88024484    -0.03300
Br1547     Br  0.14378697  0.43025503  0.88782049    -0.00400
Br1548     Br  0.09309460  0.33177838  0.80434854    -0.04800
C1549       C  0.15965030  0.50362706  0.40387824    -0.12200
C1550       C  0.17403438  0.49880458  0.42697865     0.03300
C1551       C  0.17234139  0.50064858  0.46215446    -0.12700
C1552       C  0.15667329  0.50752297  0.47475690     0.18100
C1553       C  0.14232520  0.51241438  0.45185453    -0.09800
C1554       C  0.14370597  0.51021325  0.41663961    -0.02700
H1555       H  0.18328754  0.49669690  0.47981082     0.04700
C1556       C  0.15566481  0.50938041  0.51199676     0.20100
H1557       H  0.13265451  0.51409399  0.39910637     0.09800
C1558       C  0.17066136  0.53100332  0.52613270    -0.16100
C1559       C  0.17168146  0.53278903  0.56175975     0.02800
C1560       C  0.15773668  0.51251987  0.58370434    -0.11400
C1561       C  0.14201910  0.49114637  0.56919012    -0.01500
C1562       C  0.14089336  0.48947728  0.53368001    -0.06600
H1563       H  0.18175620  0.54647111  0.50936599     0.05800
H1564       H  0.13102706  0.47541072  0.58556051     0.09200
Br1565     Br  0.12090859  0.52232329  0.46775661    -0.06300
Br1566     Br  0.19543973  0.48857080  0.41209844    -0.03300
Br1567     Br  0.19142174  0.56344977  0.57869313    -0.00400
Br1568     Br  0.11929880  0.45958598  0.51591058    -0.04800
C1569       C  0.16794450  0.51403220  0.08352717    -0.12200
C1570       C  0.15072583  0.51605451  0.06286153     0.03300
C1571       C  0.15145047  0.51499302  0.02724620    -0.12700
C1572       C  0.16859554  0.51111462  0.01199907     0.18100
C1573       C  0.18587779  0.50933745  0.03251175    -0.09800
C1574       C  0.18563240  0.51112091  0.06788817    -0.02700
H1575       H  0.13830315  0.51668733  0.01143176     0.04700
C1576       C  0.16831793  0.50887861  0.97467867     0.20100
H1577       H  0.19864881  0.50902946  0.08346151     0.09800
C1578       C  0.18750189  0.52598093  0.95464945    -0.16100
C1579       C  0.18883587  0.52398440  0.91952918     0.02800
C1580       C  0.17000550  0.50481401  0.90330686    -0.11400
C1581       C  0.15064703  0.48773901  0.92377051    -0.01500
C1582       C  0.14987886  0.48947091  0.95918804    -0.06600
H1583       H  0.20183213  0.54083544  0.96669171     0.05800
H1584       H  0.13616430  0.47268467  0.91237457     0.09200
Br1585     Br  0.20908576  0.50273894  0.01368417    -0.06300
Br1586     Br  0.12589091  0.52024522  0.08157556    -0.03300
Br1587     Br  0.21714265  0.54850858  0.89675009    -0.00400
Br1588     Br  0.12407943  0.46427398  0.98570698    -0.04800
C1589       C  0.27670067  0.56218445  0.23717002    -0.12200
C1590       C  0.28710241  0.57614155  0.20618200     0.03300
C1591       C  0.31127027  0.58560402  0.19941339    -0.12700
C1592       C  0.32594816  0.58201336  0.22285594     0.18100
C1593       C  0.31609152  0.56892402  0.25435878    -0.09800
C1594       C  0.29158666  0.55907337  0.26127434    -0.02700
H1595       H  0.31880657  0.59611741  0.17554389     0.04700
C1596       C  0.35168618  0.59403223  0.21425361     0.20100
H1597       H  0.28408734  0.54846600  0.28505304     0.09800
C1598       C  0.36434565  0.61884474  0.21212576    -0.16100
C1599       C  0.38841252  0.63132431  0.20253936     0.02800
C1600       C  0.40039087  0.61891729  0.19494848    -0.11400
C1601       C  0.38734106  0.59408554  0.19541219    -0.01500
C1602       C  0.36316678  0.58164635  0.20454664    -0.06600
H1603       H  0.35546131  0.62857292  0.21846377     0.05800
H1604       H  0.39624045  0.58425245  0.18973625     0.09200
Br1605     Br  0.33535372  0.56445145  0.28882298    -0.06300
Br1606     Br  0.27002883  0.58397592  0.17158148    -0.03300
Br1607     Br  0.40408649  0.66506893  0.20331260    -0.00400
Br1608     Br  0.34672782  0.54791940  0.20279445    -0.04800
C1609       C  0.05032759  0.29047133  0.42016241    -0.12200
C1610       C  0.04182738  0.30111617  0.39519793     0.03300
C1611       C  0.05613687  0.32481135  0.38361804    -0.12700
C1612       C  0.07892707  0.33840440  0.39682323     0.18100
C1613       C  0.08660796  0.32848573  0.42402083    -0.09800
C1614       C  0.07233879  0.30457995  0.43546437    -0.02700
H1615       H  0.04985856  0.33239254  0.36315791     0.04700
C1616       C  0.09501216  0.36185255  0.37922865     0.20100
H1617       H  0.07911402  0.29666830  0.45468502     0.09800
C1618       C  0.09603065  0.38228819  0.39045361    -0.16100
C1619       C  0.10873955  0.40414552  0.37160617     0.02800
C1620       C  0.12055837  0.40579323  0.34026766    -0.11400
C1621       C  0.12049885  0.38537141  0.33029891    -0.01500
C1622       C  0.10782078  0.36361235  0.34937802    -0.06600
H1623       H  0.08644654  0.38112638  0.41363624     0.05800
H1624       H  0.12949255  0.38602168  0.30678179     0.09200
Br1625     Br  0.11706551  0.34657626  0.44442612    -0.06300
Br1626     Br  0.01091826  0.28365871  0.37548890    -0.03300
Br1627     Br  0.10915446  0.43078734  0.39092276    -0.00400
Br1628     Br  0.10751636  0.33630309  0.33307596    -0.04800
C1629       C  0.27733668  0.89288655  0.78987736    -0.12200
C1630       C  0.27887926  0.89617998  0.82549186     0.03300
C1631       C  0.26982233  0.90953569  0.83905081    -0.12700
C1632       C  0.25914251  0.91976626  0.81778769     0.18100
C1633       C  0.25726821  0.91630959  0.78240020    -0.09800
C1634       C  0.26615701  0.90276351  0.76871071    -0.02700
H1635       H  0.27091386  0.91179579  0.86641878     0.04700
C1636       C  0.24883691  0.93277393  0.83357499     0.20100
H1637       H  0.26502123  0.90058927  0.74132354     0.09800
C1638       C  0.26214523  0.95741097  0.83442188    -0.16100
C1639       C  0.25311926  0.96997710  0.85066933     0.02800
C1640       C  0.23028918  0.95770085  0.86675193    -0.11400
C1641       C  0.21708192  0.93293890  0.86561634    -0.01500
C1642       C  0.22616330  0.92054094  0.84916047    -0.06600
H1643       H  0.27974958  0.96686577  0.82270692     0.05800
H1644       H  0.19947103  0.92314914  0.87723287     0.09200
Br1645     Br  0.24293050  0.93001755  0.75204894    -0.06300
Br1646     Br  0.29216396  0.88201539  0.85724134    -0.03300
Br1647     Br  0.27357801  0.00363664  0.85119917    -0.00400
Br1648     Br  0.20708457  0.88681765  0.84822112    -0.04800
C1649       C  0.27448773  0.73424218  0.72541642    -0.12200
C1650       C  0.25847720  0.72562864  0.69793305     0.03300
C1651       C  0.24869218  0.70208515  0.68992909    -0.12700
C1652       C  0.25360615  0.68621394  0.70966370     0.18100
C1653       C  0.26903503  0.69451279  0.73780747    -0.09800
C1654       C  0.27937372  0.71837895  0.74542263    -0.02700
H1655       H  0.23656482  0.69590414  0.66862530     0.04700
C1656       C  0.24044769  0.66076535  0.70231264     0.20100
H1657       H  0.29185168  0.72471479  0.76628582     0.09800
C1658       C  0.25253681  0.64901946  0.69239480    -0.16100
C1659       C  0.24016279  0.62460107  0.68745035     0.02800
C1660       C  0.21512282  0.61162703  0.69195424    -0.11400
C1661       C  0.20316663  0.62407617  0.69911947    -0.01500
C1662       C  0.21547598  0.64805509  0.70498992    -0.06600
H1663       H  0.27173518  0.65872090  0.68958116     0.05800
H1664       H  0.18401109  0.61471168  0.70268795     0.09200
Br1665     Br  0.27600631  0.67385582  0.76708220    -0.06300
Br1666     Br  0.24827504  0.74488557  0.67127341    -0.03300
Br1667     Br  0.25871596  0.60996413  0.67743564    -0.00400
Br1668     Br  0.19723674  0.66186917  0.72032241    -0.04800
C1669       C  0.44596311  0.72241391  0.71999299    -0.12200
C1670       C  0.43068702  0.71884505  0.69148945     0.03300
C1671       C  0.41821892  0.73127669  0.68753684    -0.12700
C1672       C  0.41995234  0.74683872  0.71172180     0.18100
C1673       C  0.43341081  0.74902317  0.74148150    -0.09800
C1674       C  0.44645598  0.73702555  0.74531798    -0.02700
H1675       H  0.40724851  0.72899213  0.66514899     0.04700
C1676       C  0.40810293  0.76110066  0.70466449     0.20100
H1677       H  0.45740301  0.73958095  0.76776946     0.09800
C1678       C  0.38333857  0.75036583  0.70818048    -0.16100
C1679       C  0.37172235  0.76363049  0.70256347     0.02800
C1680       C  0.38501403  0.78811629  0.69309424    -0.11400
C1681       C  0.40972445  0.79849079  0.68798541    -0.01500
C1682       C  0.42124061  0.78514650  0.69336467    -0.06600
H1683       H  0.37310520  0.73174207  0.71633858     0.05800
H1684       H  0.42022609  0.81725140  0.68084899     0.09200
Br1685     Br  0.43429366  0.76811113  0.77742228    -0.06300
Br1686     Br  0.42472622  0.69673621  0.65720082    -0.03300
Br1687     Br  0.33814416  0.74771834  0.71177859    -0.00400
Br1688     Br  0.45495183  0.80044137  0.68522906    -0.04800
C1689       C  0.33306511  0.84162248  0.38733134    -0.12200
C1690       C  0.34150054  0.82813931  0.40672990     0.03300
C1691       C  0.34379283  0.82966487  0.44225123    -0.12700
C1692       C  0.33804353  0.84456557  0.45901161     0.18100
C1693       C  0.33040311  0.85862510  0.43979959    -0.09800
C1694       C  0.32795939  0.85706102  0.40425401    -0.02700
H1695       H  0.35020447  0.81922772  0.45696041     0.04700
C1696       C  0.33988496  0.84484843  0.49662400     0.20100
H1697       H  0.32175270  0.86776913  0.38983033     0.09800
C1698       C  0.35844197  0.86447170  0.51136740    -0.16100
C1699       C  0.36068785  0.86508606  0.54704744     0.02800
C1700       C  0.34409908  0.84570100  0.56840376    -0.11400
C1701       C  0.32589520  0.82590062  0.55339296    -0.01500
C1702       C  0.32369640  0.82534650  0.51785280    -0.06600
H1703       H  0.37123893  0.87930427  0.49501499     0.05800
H1704       H  0.31282552  0.81101762  0.56936118     0.09200
Br1705     Br  0.32245993  0.87965451  0.46102543    -0.06300
Br1706     Br  0.35194240  0.80867458  0.38654154    -0.03300
Br1707     Br  0.38723766  0.89235748  0.56479450    -0.00400
Br1708     Br  0.29779425  0.79786272  0.49963184    -0.04800
C1709       C  0.32782761  0.84488991  0.88564405    -0.12200
C1710       C  0.30771788  0.83002089  0.90643367     0.03300
C1711       C  0.30970016  0.82976843  0.94212149    -0.12700
C1712       C  0.33151380  0.84425035  0.95731570     0.18100
C1713       C  0.35147240  0.85959401  0.93666708    -0.09800
C1714       C  0.34950745  0.85991279  0.90096074    -0.02700
H1715       H  0.29417069  0.81841072  0.95810179     0.04700
C1716       C  0.33290919  0.84385715  0.99486227     0.20100
H1717       H  0.36503514  0.87153889  0.88512252     0.09800
C1718       C  0.33938485  0.82847289  0.01262261    -0.16100
C1719       C  0.34108988  0.82798082  0.04843460     0.02800
C1720       C  0.33637164  0.84328600  0.06675747    -0.11400
C1721       C  0.32994003  0.85867193  0.04856496    -0.01500
C1722       C  0.32804361  0.85892209  0.01295382    -0.06600
H1723       H  0.34321375  0.81691070  0.99852671     0.05800
H1724       H  0.32585670  0.87025878  0.06213637     0.09200
Br1725     Br  0.38157771  0.88024428  0.95637424    -0.06300
Br1726     Br  0.27696155  0.81088123  0.88733719    -0.03300
Br1727     Br  0.35083625  0.80679499  0.07031716    -0.00400
Br1728     Br  0.31856315  0.87994934  0.98995817    -0.04800
C1729       C  0.27431378  0.88714500  0.29855509    -0.12200
C1730       C  0.25729255  0.89221828  0.28241934     0.03300
C1731       C  0.24813704  0.90448275  0.29956904    -0.12700
C1732       C  0.25546211  0.91190567  0.33282824     0.18100
C1733       C  0.27194741  0.90644766  0.34920032    -0.09800
C1734       C  0.28117138  0.89430109  0.33218455    -0.02700
H1735       H  0.23544461  0.90856207  0.28666534     0.04700
C1736       C  0.24604601  0.92557492  0.34991876     0.20100
H1737       H  0.29404708  0.89062812  0.34536708     0.09800
C1738       C  0.22957411  0.91474558  0.37721389    -0.16100
C1739       C  0.22028761  0.92703009  0.39390598     0.02800
C1740       C  0.22730671  0.95092486  0.38305183    -0.11400
C1741       C  0.24426820  0.96171858  0.35598183    -0.01500
C1742       C  0.25362845  0.94941177  0.33974440    -0.06600
H1743       H  0.22388694  0.89650626  0.38563519     0.05800
H1744       H  0.25042971  0.97996960  0.34711655     0.09200
Br1745     Br  0.28325417  0.91623609  0.39432999    -0.06300
Br1746     Br  0.24690048  0.88445973  0.23630113    -0.03300
Br1747     Br  0.19834813  0.90956887  0.43124233    -0.00400
Br1748     Br  0.27747823  0.96625232  0.30454440    -0.04800
C1749       C  0.28867873  0.73121166  0.22796284    -0.12200
C1750       C  0.27295623  0.71358167  0.25244269     0.03300
C1751       C  0.26246549  0.68956674  0.24558448    -0.12700
C1752       C  0.26745750  0.68270594  0.21481089     0.18100
C1753       C  0.28424929  0.69998627  0.19162381    -0.09800
C1754       C  0.29474135  0.72383229  0.19831548    -0.02700
H1755       H  0.24973578  0.67620848  0.26382097     0.04700
C1756       C  0.25381983  0.65771906  0.20603034     0.20100
H1757       H  0.30726765  0.73674057  0.17944206     0.09800
C1758       C  0.23261639  0.65014947  0.18774187    -0.16100
C1759       C  0.21840903  0.62632308  0.18088388     0.02800
C1760       C  0.22532308  0.60962715  0.19246882    -0.11400
C1761       C  0.24722909  0.61754354  0.20915285    -0.01500
C1762       C  0.26158018  0.64142403  0.21558914    -0.06600
H1763       H  0.22684454  0.66274485  0.17946519     0.05800
H1764       H  0.25245435  0.60490139  0.21938123     0.09200
Br1765     Br  0.29251706  0.69178300  0.14966292    -0.06300
Br1766     Br  0.26379116  0.72084801  0.29444816    -0.03300
Br1767     Br  0.18940116  0.61717618  0.15641845    -0.00400
Br1768     Br  0.29122150  0.65100525  0.23848525    -0.04800
C1769       C  0.44655817  0.72531495  0.21036270    -0.12200
C1770       C  0.43685403  0.73160884  0.23742305     0.03300
C1771       C  0.42277159  0.74226376  0.22985961    -0.12700
C1772       C  0.41755905  0.74636782  0.19582191     0.18100
C1773       C  0.42634476  0.73939905  0.16899888    -0.09800
C1774       C  0.44077112  0.72926846  0.17626947    -0.02700
H1775       H  0.41598609  0.74758486  0.25068714     0.04700
C1776       C  0.40499492  0.76001804  0.18848785     0.20100
H1777       H  0.44735631  0.72435603  0.15476297     0.09800
C1778       C  0.41823032  0.78357178  0.17518292    -0.16100
C1779       C  0.40779366  0.79797200  0.17073541     0.02800
C1780       C  0.38359430  0.78874618  0.17926052    -0.11400
C1781       C  0.36998807  0.76474361  0.19049227    -0.01500
C1782       C  0.38052934  0.75043240  0.19550589    -0.06600
H1783       H  0.43699742  0.79100926  0.16932144     0.05800
H1784       H  0.35146460  0.75751921  0.19775086     0.09200
Br1785     Br  0.41869774  0.74302817  0.12193732    -0.06300
Br1786     Br  0.44103340  0.72557415  0.28520086    -0.03300
Br1787     Br  0.42740739  0.83021206  0.15363459    -0.00400
Br1788     Br  0.36101692  0.71831579  0.21321954    -0.04800
C1789       C  0.63185331  0.58427853  0.61327315    -0.12200
C1790       C  0.64827297  0.60408216  0.63058561     0.03300
C1791       C  0.64032708  0.61641136  0.64956950    -0.12700
C1792       C  0.61601557  0.60911063  0.65189835     0.18100
C1793       C  0.59986539  0.59072631  0.63190557    -0.09800
C1794       C  0.60785293  0.57838937  0.61290459    -0.02700
H1795       H  0.65299083  0.63092050  0.66405552     0.04700
C1796       C  0.60791994  0.62124720  0.67455207     0.20100
H1797       H  0.59498420  0.56290067  0.60031127     0.09800
C1798       C  0.61409968  0.64476737  0.66560986    -0.16100
C1799       C  0.60419223  0.65585575  0.68334006     0.02800
C1800       C  0.58716443  0.64316862  0.70977894    -0.11400
C1801       C  0.58295335  0.62051009  0.72124952    -0.01500
C1802       C  0.59360647  0.60965997  0.70418647    -0.06600
H1803       H  0.62588286  0.65421470  0.64382272     0.05800
H1804       H  0.57009300  0.61059580  0.74172966     0.09200
Br1805     Br  0.56665883  0.58130276  0.63069837    -0.06300
Br1806     Br  0.68126803  0.61261644  0.63296816    -0.03300
Br1807     Br  0.61328039  0.68803987  0.66915553    -0.00400
Br1808     Br  0.58770055  0.57891394  0.72155348    -0.04800
C1809       C  0.72341487  0.60788528  0.53220280    -0.12200
C1810       C  0.74217513  0.62842117  0.54573918     0.03300
C1811       C  0.75216750  0.65008439  0.52606923    -0.12700
C1812       C  0.74357697  0.65192782  0.49333665     0.18100
C1813       C  0.72526425  0.63160819  0.47961052    -0.09800
C1814       C  0.71568113  0.60987749  0.49866106    -0.02700
H1815       H  0.76607261  0.66582927  0.53694506     0.04700
C1816       C  0.75265622  0.67553208  0.47523812     0.20100
H1817       H  0.70145640  0.59454488  0.48741107     0.09800
C1818       C  0.77370104  0.68541792  0.45549831    -0.16100
C1819       C  0.78402553  0.70882399  0.44140764     0.02800
C1820       C  0.77327794  0.72261890  0.44728259    -0.11400
C1821       C  0.75169861  0.71231380  0.46575748    -0.01500
C1822       C  0.74126031  0.68890611  0.47944045    -0.06600
H1823       H  0.78253970  0.67519507  0.45211959     0.05800
H1824       H  0.74352061  0.72289395  0.47095459     0.09200
Br1825     Br  0.71169568  0.63295276  0.43588429    -0.06300
Br1826     Br  0.75369599  0.62902156  0.59165129    -0.03300
Br1827     Br  0.81386066  0.72185873  0.41722341    -0.00400
Br1828     Br  0.71214171  0.67632826  0.50539986    -0.04800
C1829       C  0.66658333  0.51797155  0.95470849    -0.12200
C1830       C  0.68441266  0.51814689  0.93410006     0.03300
C1831       C  0.68068976  0.51462384  0.89909407    -0.12700
C1832       C  0.65954608  0.51119826  0.88375096     0.18100
C1833       C  0.64201628  0.51186906  0.90386318    -0.09800
C1834       C  0.64560420  0.51518515  0.93911378    -0.02700
H1835       H  0.69448423  0.51471716  0.88361308     0.04700
C1836       C  0.65677076  0.50767787  0.84649796     0.20100
H1837       H  0.63165499  0.51482701  0.95455510     0.09800
C1838       C  0.65246373  0.48606001  0.83451595    -0.16100
C1839       C  0.65154179  0.48278941  0.79914330     0.02800
C1840       C  0.65503698  0.50154083  0.77499946    -0.11400
C1841       C  0.65960344  0.52319783  0.78752858    -0.01500
C1842       C  0.66054380  0.52636632  0.82263709    -0.06600
H1843       H  0.64993282  0.47169341  0.85283504     0.05800
H1844       H  0.66291150  0.53811637  0.76987340     0.09200
Br1845     Br  0.61282452  0.50786555  0.88443321    -0.06300
Br1846     Br  0.71465774  0.52403569  0.95183439    -0.03300
Br1847     Br  0.64484145  0.45221762  0.78616084    -0.00400
Br1848     Br  0.66808686  0.55697374  0.83661700    -0.04800
C1849       C  0.65353135  0.48941891  0.27495041    -0.12200
C1850       C  0.67437185  0.49527960  0.29381318     0.03300
C1851       C  0.67401407  0.49629244  0.32946293    -0.12700
C1852       C  0.65324267  0.49184031  0.34670716     0.18100
C1853       C  0.63226927  0.48536710  0.32813446    -0.09800
C1854       C  0.63253975  0.48417866  0.29250841    -0.02700
H1855       H  0.69026782  0.50153346  0.34367117     0.04700
C1856       C  0.65434520  0.49541089  0.38372557     0.20100
H1857       H  0.61645307  0.47979302  0.27829276     0.09800
C1858       C  0.65504002  0.51582254  0.39473105    -0.16100
C1859       C  0.65750792  0.52049857  0.42956174     0.02800
C1860       C  0.65965063  0.50454534  0.45402020    -0.11400
C1861       C  0.65863557  0.48397462  0.44249813    -0.01500
C1862       C  0.65603679  0.47937659  0.40789921    -0.06600
H1863       H  0.65392412  0.52831791  0.37599834     0.05800
H1864       H  0.65975926  0.47112545  0.46047407     0.09200
Br1865     Br  0.60310594  0.47859698  0.35022898    -0.06300
Br1866     Br  0.70444197  0.50490669  0.27206741    -0.03300
Br1867     Br  0.65832819  0.54915081  0.44110573    -0.00400
Br1868     Br  0.65465992  0.45078802  0.39501204    -0.04800
C1869       C  0.63118254  0.58223411  0.12854205    -0.12200
C1870       C  0.64719678  0.60303487  0.14419793     0.03300
C1871       C  0.63867815  0.61559323  0.16142386    -0.12700
C1872       C  0.61427963  0.60793658  0.16292541     0.18100
C1873       C  0.59850925  0.58864582  0.14405584    -0.09800
C1874       C  0.60695314  0.57559215  0.12774922    -0.02700
H1875       H  0.65106370  0.63093864  0.17472562     0.04700
C1876       C  0.60581928  0.62049612  0.18404895     0.20100
H1877       H  0.59443192  0.55959836  0.11586572     0.09800
C1878       C  0.61266055  0.64413094  0.17455800    -0.16100
C1879       C  0.60321470  0.65586986  0.19172166     0.02800
C1880       C  0.58629954  0.64387159  0.21852087    -0.11400
C1881       C  0.58134603  0.62104204  0.23038167    -0.01500
C1882       C  0.59117613  0.60937209  0.21350376    -0.06600
H1883       H  0.62452605  0.65313165  0.15269844     0.05800
H1884       H  0.56829137  0.61153650  0.25078119     0.09200
Br1885     Br  0.56547701  0.57962695  0.13983289    -0.06300
Br1886     Br  0.68074571  0.61421661  0.14447947    -0.03300
Br1887     Br  0.61196869  0.68764787  0.17535880    -0.00400
Br1888     Br  0.58338435  0.57798288  0.23058035    -0.04800
C1889       C  0.78117666  0.72352871  0.94873733    -0.12200
C1890       C  0.79465162  0.71247339  0.95874791     0.03300
C1891       C  0.78346049  0.68945451  0.97423217    -0.12700
C1892       C  0.75881286  0.67707164  0.98011480     0.18100
C1893       C  0.74509651  0.68750862  0.96808224    -0.09800
C1894       C  0.75633257  0.71057452  0.95245962    -0.02700
H1895       H  0.79413298  0.68148638  0.98282366     0.04700
C1896       C  0.74803150  0.65395687  0.00047708     0.20100
H1897       H  0.74580628  0.71900043  0.94551721     0.09800
C1898       C  0.75218387  0.65326350  0.03598464    -0.16100
C1899       C  0.74154383  0.63177474  0.05621141     0.02800
C1900       C  0.72615172  0.61053270  0.04091502    -0.11400
C1901       C  0.72275126  0.61129942  0.00516558    -0.01500
C1902       C  0.73383892  0.63262546  0.98497044    -0.06600
H1903       H  0.76345923  0.66957427  0.04809549     0.05800
H1904       H  0.71146214  0.59512059  0.99274316     0.09200
Br1905     Br  0.71125499  0.67179873  0.97500163    -0.06300
Br1906     Br  0.82863630  0.72873846  0.95350533    -0.03300
Br1907     Br  0.74754611  0.63271688  0.10463669    -0.00400
Br1908     Br  0.72990093  0.63169424  0.93612821    -0.04800
C1909       C  0.54019151  0.27700038  0.61699354    -0.12200
C1910       C  0.53394492  0.28294226  0.64790504     0.03300
C1911       C  0.54583135  0.30635502  0.65727359    -0.12700
C1912       C  0.56318682  0.32450805  0.63559034     0.18100
C1913       C  0.56786998  0.31887170  0.60329916    -0.09800
C1914       C  0.55653389  0.29528422  0.59438237    -0.02700
H1915       H  0.54151661  0.31041165  0.68171326     0.04700
C1916       C  0.57607032  0.34910234  0.64701886     0.20100
H1917       H  0.56127692  0.29114766  0.57033118     0.09800
C1918       C  0.60094677  0.36064190  0.65023386    -0.16100
C1919       C  0.61390431  0.38465396  0.65710285     0.02800
C1920       C  0.60186084  0.39750346  0.66164563    -0.11400
C1921       C  0.57681419  0.38522173  0.66160337    -0.01500
C1922       C  0.56396418  0.36144403  0.65401164    -0.06600
H1923       H  0.61045178  0.35122180  0.64562755     0.05800
H1924       H  0.56719067  0.39472493  0.66474364     0.09200
Br1925     Br  0.58946131  0.34266155  0.57026742    -0.06300
Br1926     Br  0.50848662  0.26003981  0.67760720    -0.03300
Br1927     Br  0.64798149  0.39940752  0.65532992    -0.00400
Br1928     Br  0.53014615  0.34771565  0.64931967    -0.04800
C1929       C  0.42597766  0.06283021  0.61479457    -0.12200
C1930       C  0.40598091  0.05865037  0.63432719     0.03300
C1931       C  0.39276546  0.03703201  0.65326380    -0.12700
C1932       C  0.39917147  0.01938710  0.65264904     0.18100
C1933       C  0.41739210  0.02257463  0.62995208    -0.09800
C1934       C  0.43095842  0.04439559  0.61170948    -0.02700
H1935       H  0.37820142  0.03439829  0.66966453     0.04700
C1936       C  0.38687912  0.99777527  0.67573433     0.20100
H1937       H  0.44639225  0.04747975  0.59699116     0.09800
C1938       C  0.36344764  0.98104741  0.66862581    -0.16100
C1939       C  0.35299702  0.95844731  0.68515990     0.02800
C1940       C  0.36596644  0.95250503  0.70953756    -0.11400
C1941       C  0.38835846  0.97005291  0.71949580    -0.01500
C1942       C  0.39893640  0.99265501  0.70266502    -0.06600
H1943       H  0.35390885  0.98500798  0.64843940     0.05800
H1944       H  0.39851336  0.96559846  0.73801231     0.09200
Br1945     Br  0.42469250  0.99781632  0.62367292    -0.06300
Br1946     Br  0.39757093  0.08286884  0.63829640    -0.03300
Br1947     Br  0.32184975  0.93550214  0.67111648    -0.00400
Br1948     Br  0.43058580  0.01526588  0.71526856    -0.04800
C1949       C  0.39990373  0.12607800  0.53248287    -0.12200
C1950       C  0.39986554  0.13187731  0.49698324     0.03300
C1951       C  0.37916411  0.11964738  0.47811083    -0.12700
C1952       C  0.35837093  0.10145285  0.49410723     0.18100
C1953       C  0.35831343  0.09581978  0.52968096    -0.09800
C1954       C  0.37897880  0.10822792  0.54864175    -0.02700
H1955       H  0.37929491  0.12425254  0.45086202     0.04700
C1956       C  0.33654651  0.08904103  0.47384581     0.20100
H1957       H  0.37894497  0.10335220  0.57575707     0.09800
C1958       C  0.32754835  0.06506480  0.46799640    -0.16100
C1959       C  0.30485146  0.05182188  0.45430654     0.02800
C1960       C  0.29102566  0.06268376  0.44606103    -0.11400
C1961       C  0.30078297  0.08703603  0.44956897    -0.01500
C1962       C  0.32337579  0.10025194  0.46330097    -0.06600
H1963       H  0.33764858  0.05634753  0.47591496     0.05800
H1964       H  0.29006637  0.09543714  0.44393053     0.09200
Br1965     Br  0.33039682  0.07128115  0.55334322    -0.06300
Br1966     Br  0.42768363  0.15659013  0.47332962    -0.03300
Br1967     Br  0.29251542  0.01859830  0.45048786    -0.00400
Br1968     Br  0.33423022  0.13280718  0.47102710    -0.04800
C1969       C  0.50914234  0.16207793  0.76272511    -0.12200
C1970       C  0.52889365  0.17720301  0.78202303     0.03300
C1971       C  0.52669653  0.17626834  0.81770715    -0.12700
C1972       C  0.50525810  0.16013323  0.83456416     0.18100
C1973       C  0.48579829  0.14451643  0.81547308    -0.09800
C1974       C  0.48787151  0.14558677  0.77984413    -0.02700
H1975       H  0.54181472  0.18808116  0.83246404     0.04700
C1976       C  0.50344564  0.16057791  0.87195818     0.20100
H1977       H  0.47251996  0.13387429  0.76538068     0.09800
C1978       C  0.50265919  0.17969165  0.88496638    -0.16100
C1979       C  0.50186415  0.18141934  0.92031193     0.02800
C1980       C  0.50194727  0.16374518  0.94338397    -0.11400
C1981       C  0.50240059  0.14437949  0.93010370    -0.01500
C1982       C  0.50333131  0.14280201  0.89465332    -0.06600
H1983       H  0.50258839  0.19332115  0.86743678     0.05800
H1984       H  0.50255073  0.13067371  0.94734669     0.09200
Br1985     Br  0.45579041  0.12208351  0.83659827    -0.06300
Br1986     Br  0.55960817  0.19825094  0.76160545    -0.03300
Br1987     Br  0.49928447  0.20764435  0.93492666    -0.00400
Br1988     Br  0.50547274  0.11673829  0.87821996    -0.04800
C1989       C  0.50884107  0.16981594  0.26378841    -0.12200
C1990       C  0.51034578  0.15333447  0.28775613     0.03300
C1991       C  0.50769302  0.15467047  0.32290467    -0.12700
C1992       C  0.50343637  0.17212820  0.33476871     0.18100
C1993       C  0.50226679  0.18878582  0.31108269    -0.09800
C1994       C  0.50499155  0.18756335  0.27594700    -0.02700
H1995       H  0.50908251  0.14209664  0.34115793     0.04700
C1996       C  0.50121140  0.17323097  0.37207159     0.20100
H1997       H  0.50348741  0.20021161  0.25799751     0.09800
C1998       C  0.52005013  0.19118821  0.38908886    -0.16100
C1999       C  0.51920900  0.19226126  0.42467290     0.02800
C2000       C  0.49891399  0.17523626  0.44386218    -0.11400
C2001       C  0.48002242  0.15732861  0.42650090    -0.01500
C2002       C  0.48108314  0.15615887  0.39101522    -0.06600
H2003       H  0.53579511  0.20408315  0.37465099     0.05800
H2004       H  0.46437604  0.14397004  0.44062851     0.09200
Br2005     Br  0.49630103  0.21302665  0.32563683    -0.06300
Br2006     Br  0.51702452  0.12930460  0.27446380    -0.03300
Br2007     Br  0.54737659  0.21601264  0.44525391    -0.00400
Br2008     Br  0.45463225  0.13089872  0.36965775    -0.04800
C2009       C  0.54911175  0.27629529  0.09942687    -0.12200
C2010       C  0.53945268  0.28362737  0.12499521     0.03300
C2011       C  0.55173322  0.30675913  0.13475088    -0.12700
C2012       C  0.57304739  0.32337408  0.11823791     0.18100
C2013       C  0.58211840  0.31655364  0.09129041    -0.09800
C2014       C  0.57016614  0.29302307  0.08216201    -0.02700
H2015       H  0.54436433  0.31198490  0.15496905     0.04700
C2016       C  0.58421719  0.34804963  0.12796612     0.20100
H2017       H  0.57788054  0.28757726  0.06273603     0.09800
C2018       C  0.60701252  0.35894089  0.14219621    -0.16100
C2019       C  0.61822963  0.38281603  0.14976984     0.02800
C2020       C  0.60596443  0.39579217  0.14452630    -0.11400
C2021       C  0.58233683  0.38389569  0.13290867    -0.01500
C2022       C  0.57187450  0.36072610  0.12345345    -0.06600
H2023       H  0.61648337  0.34910214  0.14603851     0.05800
H2024       H  0.57239283  0.39322102  0.12851891     0.09200
Br2025     Br  0.61057814  0.33870804  0.06631167    -0.06300
Br2026     Br  0.50915954  0.26294146  0.14701362    -0.03300
Br2027     Br  0.65081254  0.39673278  0.16364387    -0.00400
Br2028     Br  0.54184593  0.34824750  0.10048304    -0.04800
C2029       C  0.43151390  0.06022031  0.12252286    -0.12200
C2030       C  0.43678390  0.04168100  0.12505923     0.03300
C2031       C  0.42126317  0.02038722  0.14314541    -0.12700
C2032       C  0.40058081  0.01744676  0.15913806     0.18100
C2033       C  0.39491925  0.03578299  0.15558580    -0.09800
C2034       C  0.41033015  0.05693428  0.13713585    -0.02700
H2035       H  0.42574380  0.00634841  0.14579008     0.04700
C2036       C  0.38580239  0.99531674  0.18012831     0.20100
H2037       H  0.40670149  0.07155278  0.13644716     0.09800
C2038       C  0.39574301  0.98979240  0.20925613    -0.16100
C2039       C  0.38451574  0.96702457  0.22552695     0.02800
C2040       C  0.36297174  0.94949811  0.21256010    -0.11400
C2041       C  0.35192342  0.95582357  0.18565977    -0.01500
C2042       C  0.36331582  0.97838615  0.16903060    -0.06600
H2043       H  0.41307708  0.00279300  0.21791028     0.05800
H2044       H  0.33544522  0.94242500  0.17524186     0.09200
Br2045     Br  0.36783037  0.03379564  0.17830941    -0.06300
Br2046     Br  0.46609260  0.04570759  0.10714552    -0.03300
Br2047     Br  0.40106979  0.96012120  0.26183723    -0.00400
Br2048     Br  0.34917203  0.98386568  0.12812526    -0.04800
C2049       C  0.29311395  0.05343986  0.94365922    -0.12200
C2050       C  0.30139250  0.04173816  0.96713952     0.03300
C2051       C  0.32424372  0.05407788  0.98068003    -0.12700
C2052       C  0.33919964  0.07810175  0.97096544     0.18100
C2053       C  0.33173726  0.08919095  0.94516276    -0.09800
C2054       C  0.30877751  0.07686152  0.93176174    -0.02700
H2055       H  0.32998334  0.04519628  0.99991331     0.04700
C2056       C  0.36172702  0.09172021  0.98957963     0.20100
H2057       H  0.30254952  0.08615881  0.91408561     0.09800
C2058       C  0.38353204  0.09916927  0.97297379    -0.16100
C2059       C  0.40506477  0.11238943  0.98971464     0.02800
C2060       C  0.40506075  0.11808994  0.02415765    -0.11400
C2061       C  0.38316458  0.11111922  0.04038628    -0.01500
C2062       C  0.36165407  0.09801837  0.02344820    -0.06600
H2063       H  0.38378817  0.09485785  0.94669727     0.05800
H2064       H  0.38272830  0.11536360  0.06664554     0.09200
Br2065     Br  0.35144385  0.12183207  0.93007664    -0.06300
Br2066     Br  0.28143814  0.00915461  0.98260955    -0.03300
Br2067     Br  0.43376163  0.12330663  0.96316427    -0.00400
Br2068     Br  0.33257008  0.08940236  0.04741604    -0.04800
C2069       C  0.88677570  0.28481080  0.56411141    -0.12200
C2070       C  0.89646988  0.29138453  0.53022033     0.03300
C2071       C  0.90693629  0.27942362  0.51595459    -0.12700
C2072       C  0.90809783  0.26084236  0.53457867     0.18100
C2073       C  0.89836389  0.25411456  0.56815872    -0.09800
C2074       C  0.88757237  0.26582245  0.58241759    -0.02700
H2075       H  0.91434827  0.28473733  0.49010672     0.04700
C2076       C  0.92033461  0.24939887  0.51887275     0.20100
H2077       H  0.88061330  0.26063034  0.60849610     0.09800
C2078       C  0.94502015  0.26241000  0.51325365    -0.16100
C2079       C  0.95728610  0.25235930  0.49850960     0.02800
C2080       C  0.94484573  0.22860830  0.48931662    -0.11400
C2081       C  0.91996743  0.21587328  0.49391890    -0.01500
C2082       C  0.90772708  0.22610944  0.50833955    -0.06600
H2083       H  0.95480949  0.28058592  0.52024756     0.05800
H2084       H  0.90998797  0.19780272  0.48654218     0.09200
Br2085     Br  0.90081970  0.23010962  0.59638627    -0.06300
Br2086     Br  0.89575449  0.31612722  0.50129096    -0.03300
Br2087     Br  0.99072629  0.27266315  0.48935996    -0.00400
Br2088     Br  0.87369704  0.20800910  0.51195863    -0.04800
C2089       C  0.71702847  0.45020508  0.62926843    -0.12200
C2090       C  0.73116443  0.44821964  0.60367852     0.03300
C2091       C  0.74587869  0.43847602  0.61270201    -0.12700
C2092       C  0.74680247  0.43042805  0.64668644     0.18100
C2093       C  0.73238249  0.43169687  0.67187683    -0.09800
C2094       C  0.71779934  0.44143801  0.66316992    -0.02700
H2095       H  0.75671221  0.43715989  0.59305205     0.04700
C2096       C  0.76250060  0.42025726  0.65531998     0.20100
H2097       H  0.70703372  0.44214189  0.68347002     0.09800
C2098       C  0.78663818  0.43526661  0.66198566    -0.16100
C2099       C  0.80211791  0.42610410  0.66842203     0.02800
C2100       C  0.79343356  0.40148667  0.66819445    -0.11400
C2101       C  0.76900630  0.38653974  0.66309895    -0.01500
C2102       C  0.75363300  0.39569385  0.65659516    -0.06600
H2103       H  0.79351283  0.45419260  0.66166509     0.05800
H2104       H  0.76205993  0.36771881  0.66185290     0.09200
Br2105     Br  0.73204181  0.42034370  0.71868267    -0.06300
Br2106     Br  0.73189027  0.45848594  0.55614998    -0.03300
Br2107     Br  0.83478755  0.44790144  0.67761566    -0.00400
Br2108     Br  0.72090985  0.37410699  0.64745543    -0.04800
C2109       C  0.73560189  0.29848498  0.63359909    -0.12200
C2110       C  0.72249590  0.29936132  0.66183524     0.03300
C2111       C  0.69781123  0.28481164  0.66381437    -0.12700
C2112       C  0.68559533  0.26947724  0.63816200     0.18100
C2113       C  0.69824366  0.26915369  0.60947556    -0.09800
C2114       C  0.72299239  0.28344806  0.60744360    -0.02700
H2115       H  0.68801521  0.28546932  0.68555841     0.04700
C2116       C  0.65953350  0.25441523  0.64137293     0.20100
H2117       H  0.73239861  0.28245115  0.58550527     0.09800
C2118       C  0.64501755  0.26443886  0.63335273    -0.16100
C2119       C  0.62023016  0.25042912  0.63402568     0.02800
C2120       C  0.60964648  0.22593200  0.64307213    -0.11400
C2121       C  0.62424637  0.21608998  0.65215988    -0.01500
C2122       C  0.64903163  0.23017531  0.65162644    -0.06600
H2123       H  0.65304221  0.28309472  0.62541106     0.05800
H2124       H  0.61634516  0.19727621  0.65885522     0.09200
Br2125     Br  0.68234963  0.24972231  0.57222554    -0.06300
Br2126     Br  0.73627156  0.32033167  0.69833040    -0.03300
Br2127     Br  0.60190975  0.26526305  0.61887754    -0.00400
Br2128     Br  0.66791181  0.21555710  0.66416753    -0.04800
C2129       C  0.95287373  0.37104755  0.64954267    -0.12200
C2130       C  0.95701647  0.35676116  0.67444141     0.03300
C2131       C  0.97791069  0.36649805  0.69347032    -0.12700
C2132       C  0.99507026  0.39037106  0.68760734     0.18100
C2133       C  0.99251060  0.40360224  0.65917789    -0.09800
C2134       C  0.97126546  0.39402225  0.64075380    -0.02700
H2135       H  0.98012710  0.35578988  0.71415980     0.04700
C2136       C  0.01499150  0.40139081  0.71193013     0.20100
H2137       H  0.96839954  0.40516656  0.62152859     0.09800
C2138       C  0.03133037  0.39311818  0.71580711    -0.16100
C2139       C  0.05239268  0.40576348  0.73383850     0.02800
C2140       C  0.05747120  0.42711715  0.74780221    -0.11400
C2141       C  0.03979663  0.43370929  0.74768040    -0.01500
C2142       C  0.01836408  0.42064477  0.73057416    -0.06600
H2143       H  0.02844156  0.37768528  0.70298978     0.05800
H2144       H  0.04337746  0.45000242  0.75856954     0.09200
Br2145     Br  0.01721324  0.43499125  0.64528253    -0.06300
Br2146     Br  0.93343937  0.32440058  0.68536470    -0.03300
Br2147     Br  0.07527454  0.39502724  0.73525043    -0.00400
Br2148     Br  0.99448761  0.43002899  0.73255602    -0.04800
C2149       C  0.84436428  0.35585741  0.79140636    -0.12200
C2150       C  0.86370440  0.37357466  0.80868641     0.03300
C2151       C  0.86407493  0.37223840  0.84457635    -0.12700
C2152       C  0.84553086  0.35340923  0.86366324     0.18100
C2153       C  0.82588804  0.33615447  0.84661092    -0.09800
C2154       C  0.82531575  0.33758246  0.81072032    -0.02700
H2155       H  0.87911976  0.38567354  0.85767584     0.04700
C2156       C  0.84740088  0.35160449  0.90130630     0.20100
H2157       H  0.81048376  0.32371843  0.79787106     0.09800
C2158       C  0.83805828  0.36212941  0.92157654    -0.16100
C2159       C  0.83912909  0.36022043  0.95740863     0.02800
C2160       C  0.84938835  0.34727834  0.97342418    -0.11400
C2161       C  0.85969935  0.33771788  0.95293617    -0.01500
C2162       C  0.85873896  0.33977189  0.91709126    -0.06600
H2163       H  0.82997909  0.37189898  0.90946160     0.05800
H2164       H  0.86808758  0.32823190  0.96479081     0.09200
Br2165     Br  0.80013701  0.30969534  0.87127185    -0.06300
Br2166     Br  0.88994970  0.40015952  0.78483257    -0.03300
Br2167     Br  0.82778927  0.37696921  0.98307395    -0.00400
Br2168     Br  0.87292784  0.32603364  0.89057351    -0.04800
C2169       C  0.84632152  0.35776866  0.29030370    -0.12200
C2170       C  0.86696000  0.37359245  0.30774981     0.03300
C2171       C  0.86729200  0.37223968  0.34367471    -0.12700
C2172       C  0.84729243  0.35565325  0.36292670     0.18100
C2173       C  0.82625014  0.34084013  0.34585848    -0.09800
C2174       C  0.82588986  0.34194198  0.30986860    -0.02700
H2175       H  0.88335537  0.38408000  0.35672752     0.04700
C2176       C  0.84899828  0.35391776  0.40075090     0.20100
H2177       H  0.80981048  0.32973765  0.29721618     0.09800
C2178       C  0.84590520  0.36955797  0.42021966    -0.16100
C2179       C  0.84755734  0.36837445  0.45605875     0.02800
C2180       C  0.85234840  0.35132351  0.47290630    -0.11400
C2181       C  0.85591638  0.33600856  0.45335988    -0.01500
C2182       C  0.85452592  0.33737080  0.41747142    -0.06600
H2183       H  0.84214095  0.38266545  0.40749197     0.05800
H2184       H  0.85909146  0.32253357  0.46603133     0.09200
Br2185     Br  0.79779226  0.31855182  0.37066992    -0.06300
Br2186     Br  0.89503608  0.39818926  0.28453440    -0.03300
Br2187     Br  0.84358407  0.39066863  0.48103483    -0.00400
Br2188     Br  0.86046547  0.31648354  0.39218313    -0.04800
C2189       C  0.88722790  0.28013743  0.07078041    -0.12200
C2190       C  0.88669850  0.27842929  0.03484581     0.03300
C2191       C  0.89805905  0.26762437  0.01976509    -0.12700
C2192       C  0.91007688  0.25827351  0.03986251     0.18100
C2193       C  0.90993264  0.25911905  0.07587819    -0.09800
C2194       C  0.89843085  0.26986669  0.09110161    -0.02700
H2195       H  0.89771042  0.26669951  0.99211286     0.04700
C2196       C  0.92305518  0.24828256  0.02243261     0.20100
H2197       H  0.89895665  0.27092890  0.11872987     0.09800
C2198       C  0.94738244  0.26268938  0.01481345    -0.16100
C2199       C  0.95998342  0.25422831  0.99691570     0.02800
C2200       C  0.94826542  0.23075766  0.98654461    -0.11400
C2201       C  0.92374782  0.21655676  0.99362581    -0.01500
C2202       C  0.91117687  0.22515383  0.01132125    -0.06600
H2203       H  0.95653378  0.28074420  0.02239802     0.05800
H2204       H  0.91440823  0.19850115  0.98607116     0.09200
Br2205     Br  0.92556369  0.24616343  0.10498091    -0.06300
Br2206     Br  0.86987578  0.28971919  0.00520887    -0.03300
Br2207     Br  0.99276256  0.27607475  0.98541689    -0.00400
Br2208     Br  0.87782939  0.20469444  0.02022437    -0.04800
C2209       C  0.79159827  0.39765956  0.16230302    -0.12200
C2210       C  0.80084736  0.42164504  0.16861830     0.03300
C2211       C  0.78715481  0.43269035  0.16163157    -0.12700
C2212       C  0.76407273  0.42008451  0.14865662     0.18100
C2213       C  0.75436405  0.39576761  0.14405966    -0.09800
C2214       C  0.76815862  0.38480249  0.15075714    -0.02700
H2215       H  0.79468152  0.45130078  0.16581909     0.04700
C2216       C  0.75052212  0.43263624  0.13993183     0.20100
H2217       H  0.76096953  0.36646386  0.14516955     0.09800
C2218       C  0.74447853  0.43506373  0.10563762    -0.16100
C2219       C  0.73101753  0.44623199  0.09677005     0.02800
C2220       C  0.72369932  0.45567021  0.12261064    -0.11400
C2221       C  0.73075253  0.45385285  0.15672173    -0.01500
C2222       C  0.74363286  0.44230549  0.16549390    -0.06600
H2223       H  0.74991820  0.42781518  0.08571568     0.05800
H2224       H  0.72579363  0.46100124  0.17730519     0.09200
Br2225     Br  0.72245125  0.37682770  0.12852214    -0.06300
Br2226     Br  0.83200402  0.43988044  0.18700315    -0.03300
Br2227     Br  0.72246374  0.44665181  0.04943970    -0.00400
Br2228     Br  0.74996799  0.43893606  0.21326657    -0.04800
C2229       C  0.60936187  0.22529342  0.15494095    -0.12200
C2230       C  0.62004257  0.24997754  0.14752680     0.03300
C2231       C  0.64483656  0.26368050  0.14597648    -0.12700
C2232       C  0.65914514  0.25317629  0.15201585     0.18100
C2233       C  0.64847749  0.22896792  0.16264070    -0.09800
C2234       C  0.62375453  0.21519066  0.16360864    -0.02700
H2235       H  0.65297593  0.28241137  0.13848729     0.04700
C2236       C  0.68505274  0.26759929  0.14606512     0.20100
H2237       H  0.61572398  0.19629891  0.16974267     0.09800
C2238       C  0.69844721  0.28561334  0.16779632    -0.16100
C2239       C  0.72314025  0.29900363  0.16404062     0.02800
C2240       C  0.73497432  0.29455058  0.13763688    -0.11400
C2241       C  0.72120416  0.27722486  0.11471791    -0.01500
C2242       C  0.69644395  0.26382786  0.11873198    -0.06600
H2243       H  0.68963416  0.28899522  0.18825347     0.05800
H2244       H  0.72972232  0.27366028  0.09408123     0.09200
Br2245     Br  0.66679594  0.21373318  0.17514042    -0.06300
Br2246     Br  0.60193778  0.26559591  0.13554942    -0.03300
Br2247     Br  0.73901093  0.32311833  0.19601322    -0.00400
Br2248     Br  0.67878265  0.24086064  0.08598376    -0.04800
C2249       C  0.05871093  0.42522170  0.23724800    -0.12200
C2250       C  0.05514691  0.40462388  0.22220636     0.03300
C2251       C  0.03399417  0.39073190  0.20508768    -0.12700
C2252       C  0.01632281  0.39726753  0.20246449     0.18100
C2253       C  0.01903012  0.41670403  0.21998536    -0.09800
C2254       C  0.04014466  0.43050854  0.23727105    -0.02700
H2255       H  0.03190361  0.37560972  0.19218496     0.04700
C2256       C  0.99569847  0.38458718  0.18007360     0.20100
H2257       H  0.04285544  0.44654574  0.24807239     0.09800
C2258       C  0.97715689  0.36233397  0.19148573    -0.16100
C2259       C  0.95539981  0.35242404  0.17455369     0.02800
C2260       C  0.95180822  0.36520681  0.14651524    -0.11400
C2261       C  0.97131731  0.38593866  0.13248494    -0.01500
C2262       C  0.99334576  0.39549226  0.14885653    -0.06600
H2263       H  0.97912254  0.35332549  0.21467853     0.05800
H2264       H  0.96893402  0.39579390  0.11070752     0.09200
Br2265     Br  0.99512108  0.42613780  0.21862005    -0.06300
Br2266     Br  0.07974451  0.39616852  0.22179968    -0.03300
Br2267     Br  0.93039093  0.32215214  0.19206927    -0.00400
Br2268     Br  0.01937370  0.42425738  0.12920343    -0.04800
loop_ 
_geom_bond_atom_site_label_1 
_geom_bond_atom_site_label_2 
_geom_bond_distance 
_geom_bond_site_symmetry_2 
_ccdc_geom_bond_type 
Zr1           O2   2.441       .  S
Zr1           O3   2.453       .  S
Zr1           O4   2.442       .  S
Zr1           O7   2.402       .  S
Zr1           O9   2.376       .  S
Zr1          O10   2.381       .  S
Zr1          O11   2.409       .  S
Zr1          O12   2.409       .  S
O2           H58   0.990       .  S
O2           H66   0.990       .  S
O3           C23   1.287       .  A
O4           C25   1.285       .  A
O5          Zr15   2.453       .  S
O5           C24   1.288       .  A
O6          Zr14   2.422       .  S
O6           C25   1.280       .  A
O7           C24   1.278       .  A
O8          Zr16   2.422       .  S
O8           C23   1.282       .  A
O9          Zr14   2.384       .  S
O9          Zr16   2.376       .  S
O10         Zr15   2.374       .  S
O10         Zr16   2.384       .  S
O10          H45   0.964       .  S
O11         Zr14   2.388       .  S
O11         Zr31   2.417       .  S
O11          H48   0.967       .  S
O12         Zr15   2.384       .  S
O12         Zr31   2.406       .  S
Zr13         O38   2.440       .  S
Zr13         O32   2.427       .  S
Zr13         O40   2.446       .  S
Zr13         O28   2.464       .  S
Zr13         O19   2.401       .  S
Zr13         O20   2.411       .  S
Zr13         O21   2.372       .  S
Zr13         O22   2.393       .  S
Zr14         O33   2.438       .  S
Zr14         O26   2.434       .  S
Zr14         O27   2.396       .  S
Zr14         O20   2.394       .  S
Zr14         O21   2.382       .  S
Zr15         O17   2.434       .  S
Zr15         O39   2.441       .  S
Zr15         O41   2.422       .  S
Zr15         O19   2.398       .  S
Zr15         O22   2.391       .  S
Zr16         O42   2.437       .  S
Zr16         O43   2.437       .  S
Zr16         O18   2.439       .  S
Zr16         O19   2.389       .  S
Zr16         O20   2.404       .  S
O17          H54   0.990       .  S
O18          H49   0.990       .  S
O18          H63   0.990       .  S
O20          H46   0.967       .  S
O21         Zr31   2.357       .  S
O22         Zr31   2.382       .  S
O22          H47   0.966       .  S
C23        C2209   1.475       .  S
C24        C2240   1.486       .  S
C25        C2169   1.487       .  S
O26          H62   0.990       .  S
O27          C29   1.279       .  A
O28          C29   1.290       .  A
C29        C2260   1.472       .  S
O30         Zr31   2.439       .  S
O30          H59   0.990       .  S
Zr31         O34   2.437       .  S
Zr31         O35   2.439       .  S
Zr31         O36   2.460       .  S
O32          C37   1.284       .  A
O33          H50   0.990       .  S
O33          H65   0.990       .  S
O34          H51   0.990       .  S
O35          H55   0.990       .  S
O35          H64   0.989       .  S
O36          C37   1.289       .  A
C37        C2189   1.485       .  S
O38          H57   0.990       .  S
O38          H61   0.990       .  S
O39          H53   0.990       .  S
O39          H60   0.990       .  S
O40          C44   1.288       .  A
O41          C44   1.284       .  A
O42          H52   0.990       .  S
O43          H56   0.990       .  S
C44        C2160   1.476   1_554  S
Zr67         O68   2.441       .  S
Zr67         O69   2.448       .  S
Zr67         O70   2.440       .  S
Zr67         O73   2.400       .  S
Zr67         O75   2.373       .  S
Zr67         O76   2.382       .  S
Zr67         O77   2.406       .  S
Zr67         O78   2.410       .  S
O68         H124   0.990       .  S
O68         H132   0.990       .  S
O69          C89   1.288       .  A
O70          C91   1.284       .  A
O71         Zr81   2.459       .  S
O71          C90   1.291       .  A
O72         Zr80   2.406       .  S
O72          C91   1.278       .  A
O73          C90   1.277       .  A
O74         Zr82   2.430       .  S
O74          C89   1.283       .  A
O75         Zr80   2.385       .  S
O75         Zr82   2.378       .  S
O76         Zr81   2.375       .  S
O76         Zr82   2.382       .  S
O76         H111   0.965       .  S
O77         Zr80   2.386       .  S
O77         Zr97   2.420       .  S
O77         H114   0.967       .  S
O78         Zr81   2.381       .  S
O78         Zr97   2.402       .  S
Zr79        O104   2.438       .  S
Zr79         O98   2.417       .  S
Zr79        O106   2.450       .  S
Zr79         O94   2.470       .  S
Zr79         O85   2.406       .  S
Zr79         O86   2.405       .  S
Zr79         O87   2.374       .  S
Zr79         O88   2.390       .  S
Zr80         O99   2.439       .  S
Zr80         O92   2.436       .  S
Zr80         O93   2.382       .  S
Zr80         O86   2.390       .  S
Zr80         O87   2.385       .  S
Zr81         O83   2.437       .  S
Zr81        O105   2.437       .  S
Zr81        O107   2.417       .  S
Zr81         O85   2.403       .  S
Zr81         O88   2.386       .  S
Zr82        O108   2.436       .  S
Zr82        O109   2.437       .  S
Zr82         O84   2.438       .  S
Zr82         O85   2.395       .  S
Zr82         O86   2.400       .  S
O83         H120   0.990       .  S
O84         H115   0.990       .  S
O84         H129   0.990       .  S
O86         H112   0.967       .  S
O87         Zr97   2.364       .  S
O88         Zr97   2.373       .  S
O88         H113   0.966       .  S
C89        C2100   1.485       .  S
C90        C2109   1.490       .  S
C91        C2149   1.474       .  S
O92         H128   0.990       .  S
O93          C95   1.276       .  A
O94          C95   1.290       .  A
C95        C2129   1.469       .  S
O96         Zr97   2.439       .  S
O96         H125   0.990       .  S
Zr97        O100   2.436       .  S
Zr97        O101   2.439       .  S
Zr97        O102   2.461       .  S
O98         C103   1.281       .  A
O99         H116   0.990       .  S
O99         H131   0.990       .  S
O100        H117   0.990       .  S
O101        H121   0.990       .  S
O101        H130   0.990       .  S
O102        C103   1.290       .  A
C103       C2069   1.493       .  S
O104        H123   0.990       .  S
O104        H127   0.990       .  S
O105        H119   0.990       .  S
O105        H126   0.990       .  S
O106        C110   1.288       .  A
O107        C110   1.282       .  A
O108        H118   0.990       .  S
O109        H122   0.990       .  S
C110       C2180   1.472       .  S
Zr133       O134   2.442       .  S
Zr133       O135   2.431       .  S
Zr133       O136   2.431       .  S
Zr133       O139   2.383       .  S
Zr133       O141   2.369       .  S
Zr133       O142   2.383       .  S
Zr133       O143   2.396       .  S
Zr133       O144   2.406       .  S
O134        H190   0.990       .  S
O134        H198   0.991       .  S
O135        C155   1.282       .  A
O136        C157   1.281       .  A
O137       Zr147   2.458       .  S
O137        C156   1.288       .  A
O138       Zr146   2.423       .  S
O138        C157   1.280       .  A
O139        C156   1.275       .  A
O140       Zr148   2.404       .  S
O140        C155   1.279       .  A
O141       Zr146   2.386       .  S
O141       Zr148   2.384       .  S
O142       Zr147   2.387       .  S
O142       Zr148   2.384       .  S
O142        H177   0.965       .  S
O143       Zr146   2.388       .  S
O143       Zr163   2.418       .  S
O143        H180   0.966       .  S
O144       Zr147   2.390       .  S
O144       Zr163   2.400       .  S
Zr145       O170   2.437       .  S
Zr145       O164   2.409       .  S
Zr145       O172   2.421   1_554  S
Zr145       O160   2.443       .  S
Zr145       O151   2.395       .  S
Zr145       O152   2.399       .  S
Zr145       O153   2.368       .  S
Zr145       O154   2.389       .  S
Zr146       O165   2.438       .  S
Zr146       O158   2.436       .  S
Zr146       O159   2.391       .  S
Zr146       O152   2.396       .  S
Zr146       O153   2.383       .  S
Zr147       O149   2.435       .  S
Zr147       O171   2.436       .  S
Zr147       O173   2.434   1_554  S
Zr147       O151   2.398       .  S
Zr147       O154   2.390       .  S
Zr148       O174   2.440       .  S
Zr148       O175   2.436       .  S
Zr148       O150   2.438       .  S
Zr148       O151   2.384       .  S
Zr148       O152   2.397       .  S
O149        H186   0.990       .  S
O150        H181   0.990       .  S
O150        H195   0.990       .  S
O152        H178   0.966       .  S
O153       Zr163   2.362       .  S
O154       Zr163   2.372       .  S
O154        H179   0.965       .  S
C155       C2229   1.468       .  S
C156       C2009   1.469       .  S
C157       C1989   1.480       .  S
O158        H194   0.990       .  S
O159        C161   1.277       .  A
O160        C161   1.286       .  A
C161       C2029   1.457       .  S
O162       Zr163   2.441       .  S
O162        H191   0.990       .  S
Zr163       O166   2.439       .  S
Zr163       O167   2.438       .  S
Zr163       O168   2.466       .  S
O164        C169   1.280       .  A
O165        H182   0.990       .  S
O165        H197   0.990       .  S
O166        H183   0.990       .  S
O167        H187   0.990       .  S
O167        H196   0.989       .  S
O168        C169   1.291       .  A
C169       C2060   1.487       .  S
O170        H189   0.990       .  S
O170        H193   0.990       .  S
O171        H185   0.990   1_554  S
O171        H192   0.990       .  S
O172        C176   1.284       .  A
O173        C176   1.286       .  A
O174        H184   0.990       .  S
O175        H188   0.989       .  S
C176       C1980   1.478       .  S
Zr199       O200   2.444       .  S
Zr199       O201   2.451       .  S
Zr199       O202   2.429       .  S
Zr199       O205   2.401       .  S
Zr199       O207   2.375       .  S
Zr199       O208   2.380       .  S
Zr199       O209   2.414       .  S
Zr199       O210   2.410       .  S
O200        H256   0.990       .  S
O200        H264   0.991       .  S
O201        C221   1.285       .  A
O202        C223   1.279       .  A
O203       Zr213   2.466       .  S
O203        C222   1.290       .  A
O204       Zr212   2.402       .  S
O204        C223   1.277       .  A
O205        C222   1.278       .  A
O206       Zr214   2.406       .  S
O206        C221   1.278       .  A
O207       Zr212   2.385       .  S
O207       Zr214   2.380       .  S
O208       Zr213   2.386       .  S
O208       Zr214   2.392       .  S
O208        H243   0.964       .  S
O209       Zr212   2.399       .  S
O209       Zr229   2.415       .  S
O209        H246   0.965       .  S
O210       Zr213   2.386       .  S
O210       Zr229   2.402       .  S
Zr211       O236   2.436       .  S
Zr211       O230   2.398       .  S
Zr211       O238   2.420       .  S
Zr211       O226   2.457       .  S
Zr211       O217   2.396       .  S
Zr211       O218   2.397       .  S
Zr211       O219   2.365       .  S
Zr211       O220   2.392       .  S
Zr212       O231   2.443       .  S
Zr212       O224   2.434       .  S
Zr212       O225   2.394       .  S
Zr212       O218   2.386       .  S
Zr212       O219   2.381       .  S
Zr213       O215   2.435       .  S
Zr213       O237   2.437       .  S
Zr213       O239   2.438       .  S
Zr213       O217   2.402       .  S
Zr213       O220   2.387       .  S
Zr214       O240   2.434       .  S
Zr214       O241   2.435       .  S
Zr214       O216   2.439       .  S
Zr214       O217   2.387       .  S
Zr214       O218   2.398       .  S
O215        H252   0.989       .  S
O216        H247   0.990       .  S
O216        H261   0.990       .  S
O218        H244   0.966       .  S
O219       Zr229   2.355       .  S
O220       Zr229   2.374       .  S
O220        H245   0.966       .  S
C221       C2120   1.473       .  S
C222       C1909   1.483       .  S
C223       C1969   1.469       .  S
O224        H260   0.990       .  S
O225        C227   1.277       .  A
O226        C227   1.287       .  A
C227       C1929   1.463       .  S
O228       Zr229   2.438       .  S
O228        H257   0.990       .  S
Zr229       O232   2.435       .  S
Zr229       O233   2.439       .  S
Zr229       O234   2.463       .  S
O230        C235   1.278       .  A
O231        H248   0.990       .  S
O231        H263   0.990       .  S
O232        H249   0.990       .  S
O233        H253   0.990       .  S
O233        H262   0.990       .  S
O234        C235   1.289       .  A
C235       C1949   1.470       .  S
O236        H255   0.990       .  S
O236        H259   0.990       .  S
O237        H251   0.990       .  S
O237        H258   0.990       .  S
O238        C242   1.285       .  A
O239        C242   1.286       .  A
O240        H250   0.990       .  S
O241        H254   0.990       .  S
C242       C2000   1.482       .  S
Zr265       O266   2.443       .  S
Zr265       O267   2.476       .  S
Zr265       O268   2.451       .  S
Zr265       O271   2.398       .  S
Zr265       O273   2.372       .  S
Zr265       O274   2.381       .  S
Zr265       O275   2.420       .  S
Zr265       O276   2.416       .  S
O266        H322   0.990       .  S
O266        H330   0.990       .  S
O267        C287   1.289       .  A
O268        C289   1.284       .  A
O269       Zr279   2.465       .  S
O269        C288   1.288       .  A
O270       Zr278   2.413       .  S
O270        C289   1.279       .  A
O271        C288   1.279       .  A
O272       Zr280   2.383       .  S
O272        C287   1.277       .  A
O273       Zr278   2.389       .  S
O273       Zr280   2.380       .  S
O274       Zr279   2.375       .  S
O274       Zr280   2.393       .  S
O274        H309   0.965       .  S
O275       Zr278   2.396       .  S
O275       Zr295   2.423       .  S
O275        H312   0.966       .  S
O276       Zr279   2.383       .  S
O276       Zr295   2.409       .  S
Zr277       O302   2.442       .  S
Zr277       O296   2.403       .  S
Zr277       O304   2.449       .  S
Zr277       O292   2.470       .  S
Zr277       O283   2.398       .  S
Zr277       O284   2.396       .  S
Zr277       O285   2.375       .  S
Zr277       O286   2.393       .  S
Zr278       O297   2.439       .  S
Zr278       O290   2.435       .  S
Zr278       O291   2.397       .  S
Zr278       O284   2.391       .  S
Zr278       O285   2.389       .  S
Zr279       O281   2.434       .  S
Zr279       O303   2.437       .  S
Zr279       O305   2.420       .  S
Zr279       O283   2.409       .  S
Zr279       O286   2.384       .  S
Zr280       O306   2.435       .  S
Zr280       O307   2.434       .  S
Zr280       O282   2.440       .  S
Zr280       O283   2.385       .  S
Zr280       O284   2.384       .  S
O281        H318   0.990       .  S
O282        H313   0.990       .  S
O282        H327   0.990       .  S
O284        H310   0.967       .  S
O285       Zr295   2.361       .  S
O286       Zr295   2.368       .  S
O286        H311   0.966       .  S
C287       C2020   1.488       .  S
C288       C2220   1.497       .  S
C289       C1849   1.474       .  S
O290        H326   0.990       .  S
O291        C293   1.278       .  A
O292        C293   1.291       .  A
C293       C1869   1.470       .  S
O294       Zr295   2.438       .  S
O294        H323   0.991       .  S
Zr295       O298   2.437       .  S
Zr295       O299   2.441       .  S
Zr295       O300   2.467       .  S
O296        C301   1.280       .  A
O297        H314   0.990       .  S
O297        H329   0.990       .  S
O298        H315   0.990       .  S
O299        H319   0.990       .  S
O299        H328   0.990       .  S
O300        C301   1.290       .  A
C301       C1900   1.485       .  S
O302        H321   0.990       .  S
O302        H325   0.990       .  S
O303        H317   0.990       .  S
O303        H324   0.990       .  S
O304        C308   1.289   1_554  A
O305        C308   1.283   1_554  A
O306        H316   0.990       .  S
O307        H320   0.990       .  S
C308       C1829   1.480       .  S
Zr331       O332   2.440       .  S
Zr331       O333   2.476       .  S
Zr331       O334   2.466       .  S
Zr331       O337   2.416       .  S
Zr331       O339   2.375       .  S
Zr331       O340   2.381       .  S
Zr331       O341   2.418       .  S
Zr331       O342   2.414       .  S
O332        H388   0.990       .  S
O332        H396   0.990       .  S
O333        C353   1.291       .  A
O334        C355   1.287       .  A
O335       Zr345   2.450       .  S
O335        C354   1.286       .  A
O336       Zr344   2.406       .  S
O336        C355   1.279       .  A
O337        C354   1.283       .  A
O338       Zr346   2.399       .  S
O338        C353   1.279       .  A
O339       Zr344   2.385       .  S
O339       Zr346   2.380       .  S
O340       Zr345   2.378       .  S
O340       Zr346   2.386       .  S
O340        H375   0.965       .  S
O341       Zr344   2.391       .  S
O341       Zr361   2.417       .  S
O341        H378   0.965       .  S
O342       Zr345   2.380       .  S
O342       Zr361   2.400       .  S
Zr343       O368   2.447       .  S
Zr343       O362   2.412       .  S
Zr343       O370   2.444       .  S
Zr343       O358   2.460       .  S
Zr343       O349   2.394       .  S
Zr343       O350   2.401       .  S
Zr343       O351   2.379       .  S
Zr343       O352   2.391       .  S
Zr344       O363   2.442       .  S
Zr344       O356   2.434       .  S
Zr344       O357   2.390       .  S
Zr344       O350   2.391       .  S
Zr344       O351   2.386       .  S
Zr345       O347   2.435       .  S
Zr345       O369   2.438       .  S
Zr345       O371   2.403       .  S
Zr345       O349   2.400       .  S
Zr345       O352   2.387       .  S
Zr346       O372   2.434       .  S
Zr346       O373   2.435       .  S
Zr346       O348   2.436       .  S
Zr346       O349   2.381       .  S
Zr346       O350   2.390       .  S
O347        H384   0.990       .  S
O348        H379   0.990       .  S
O348        H393   0.990       .  S
O350        H376   0.967       .  S
O351       Zr361   2.363       .  S
O352       Zr361   2.372       .  S
O352        H377   0.967       .  S
C353       C1920   1.488       .  S
C354       C2089   1.500       .  S
C355       C1840   1.494       .  S
O356        H392   0.990       .  S
O357        C359   1.276       .  A
O358        C359   1.289       .  A
C359       C1789   1.464       .  S
O360       Zr361   2.437       .  S
O360        H389   0.990       .  S
Zr361       O364   2.435       .  S
Zr361       O365   2.439       .  S
Zr361       O366   2.456       .  S
O362        C367   1.282       .  A
O363        H380   0.990       .  S
O363        H395   0.990       .  S
O364        H381   0.990       .  S
O365        H385   0.990       .  S
O365        H394   0.990       .  S
O366        C367   1.288       .  A
C367       C1809   1.492       .  S
O368        H387   0.990       .  S
O368        H391   0.990       .  S
O369        H383   0.990       .  S
O369        H390   0.990       .  S
O370        C374   1.286       .  A
O371        C374   1.282       .  A
O372        H382   0.990       .  S
O373        H386   0.990       .  S
C374       C1860   1.486       .  S
Zr397       O398   2.439       .  S
Zr397       O399   2.445       .  S
Zr397       O400   2.420       .  S
Zr397       O403   2.392       .  S
Zr397       O405   2.373       .  S
Zr397       O406   2.371       .  S
Zr397       O407   2.404       .  S
Zr397       O408   2.412       .  S
O398        H454   0.991       .  S
O398        H462   0.990       .  S
O399        C419   1.286       .  A
O400        C421   1.279       .  A
O401       Zr411   2.479       .  S
O401        C420   1.292       .  A
O402       Zr410   2.415       .  S
O402        C421   1.280       .  A
O403        C420   1.279       .  A
O404       Zr412   2.420       .  S
O404        C419   1.282       .  A
O405       Zr410   2.382       .  S
O405       Zr412   2.378       .  S
O406       Zr411   2.372       .  S
O406       Zr412   2.375       .  S
O406        H441   0.964       .  S
O407       Zr410   2.389       .  S
O407       Zr427   2.413       .  S
O407        H444   0.966       .  S
O408       Zr411   2.394       .  S
O408       Zr427   2.414       .  S
Zr409       O434   2.441       .  S
Zr409       O428   2.432       .  S
Zr409       O436   2.428       .  S
Zr409       O424   2.450       .  S
Zr409       O415   2.402       .  S
Zr409       O416   2.405       .  S
Zr409       O417   2.372       .  S
Zr409       O418   2.391       .  S
Zr410       O429   2.441       .  S
Zr410       O422   2.435       .  S
Zr410       O423   2.392       .  S
Zr410       O416   2.391       .  S
Zr410       O417   2.388       .  S
Zr411       O413   2.434       .  S
Zr411       O435   2.439       .  S
Zr411       O437   2.436       .  S
Zr411       O415   2.403       .  S
Zr411       O418   2.403       .  S
Zr412       O438   2.436       .  S
Zr412       O439   2.435       .  S
Zr412       O414   2.437       .  S
Zr412       O415   2.394       .  S
Zr412       O416   2.397       .  S
O413        H450   0.990       .  S
O414        H445   0.990       .  S
O414        H459   0.990       .  S
O416        H442   0.966       .  S
O417       Zr427   2.362       .  S
O418       Zr427   2.374       .  S
O418        H443   0.966       .  S
C419       C1780   1.474       .  S
C420       C1749   1.497       .  S
C421       C1720   1.474       .  S
O422        H458   0.990       .  S
O423        C425   1.279       .  A
O424        C425   1.287       .  A
C425       C2040   1.470       .  S
O426       Zr427   2.438       .  S
O426        H455   0.991       .  S
Zr427       O430   2.435       .  S
Zr427       O431   2.439       .  S
Zr427       O432   2.470       .  S
O428        C433   1.285       .  A
O429        H446   0.990       .  S
O429        H461   0.990       .  S
O430        H447   0.990       .  S
O431        H451   0.990       .  S
O431        H460   0.990       .  S
O432        C433   1.290       .  A
C433       C1729   1.504       .  S
O434        H453   0.990       .  S
O434        H457   0.989       .  S
O435        H449   0.990       .  S
O435        H456   0.989       .  S
O436        C440   1.285       .  A
O437        C440   1.286       .  A
O438        H448   0.990       .  S
O439        H452   0.990       .  S
C440       C1689   1.479       .  S
Zr463       O464   2.441       .  S
Zr463       O465   2.455       .  S
Zr463       O466   2.424       .  S
Zr463       O469   2.394       .  S
Zr463       O471   2.372       .  S
Zr463       O472   2.376       .  S
Zr463       O473   2.408       .  S
Zr463       O474   2.407       .  S
O464        H520   0.990       .  S
O464        H528   0.990       .  S
O465        C485   1.287       .  A
O466        C487   1.281       .  A
O467       Zr477   2.476       .  S
O467        C486   1.292       .  A
O468       Zr476   2.403       .  S
O468        C487   1.276       .  A
O469        C486   1.277       .  A
O470       Zr478   2.407       .  S
O470        C485   1.279       .  A
O471       Zr476   2.390       .  S
O471       Zr478   2.379       .  S
O472       Zr477   2.380       .  S
O472       Zr478   2.387       .  S
O472        H507   0.965       .  S
O473       Zr476   2.390       .  S
O473       Zr493   2.414       .  S
O473        H510   0.965       .  S
O474       Zr477   2.386       .  S
O474       Zr493   2.404       .  S
Zr475       O500   2.442       .  S
Zr475       O494   2.405       .  S
Zr475       O502   2.412       .  S
Zr475       O490   2.448       .  S
Zr475       O481   2.397       .  S
Zr475       O482   2.390       .  S
Zr475       O483   2.368       .  S
Zr475       O484   2.395       .  S
Zr476       O495   2.439       .  S
Zr476       O488   2.436       .  S
Zr476       O489   2.395       .  S
Zr476       O482   2.391       .  S
Zr476       O483   2.378       .  S
Zr477       O479   2.435       .  S
Zr477       O501   2.437       .  S
Zr477       O503   2.431       .  S
Zr477       O481   2.404       .  S
Zr477       O484   2.396       .  S
Zr478       O504   2.437       .  S
Zr478       O505   2.435       .  S
Zr478       O480   2.434       .  S
Zr478       O481   2.384       .  S
Zr478       O482   2.392       .  S
O479        H516   0.990       .  S
O480        H511   0.990       .  S
O480        H525   0.990       .  S
O482        H508   0.965       .  S
O483       Zr493   2.359       .  S
O484       Zr493   2.373       .  S
O484        H509   0.967       .  S
C485       C1680   1.478       .  S
C486       C1649   1.483       .  S
C487       C1700   1.470       .  S
O488        H524   0.989       .  S
O489        C491   1.278       .  A
O490        C491   1.286       .  A
C491       C1940   1.464       .  S
O492       Zr493   2.437       .  S
O492        H521   0.991       .  S
Zr493       O496   2.438       .  S
Zr493       O497   2.436       .  S
Zr493       O498   2.456       .  S
O494        C499   1.279       .  A
O495        H512   0.990       .  S
O495        H527   0.990       .  S
O496        H513   0.990       .  S
O497        H517   0.990       .  S
O497        H526   0.990       .  S
O498        C499   1.288       .  A
C499       C1629   1.478       .  S
O500        H519   0.990       .  S
O500        H523   0.990       .  S
O501        H515   0.990       .  S
O501        H522   0.990       .  S
O502        C506   1.282       .  A
O503        C506   1.286       .  A
O504        H514   0.990       .  S
O505        H518   0.990       .  S
C506       C1709   1.464       .  S
Zr529       O530   2.443       .  S
Zr529       O531   2.462       .  S
Zr529       O532   2.434       .  S
Zr529       O535   2.379       .  S
Zr529       O537   2.367       .  S
Zr529       O538   2.380       .  S
Zr529       O539   2.410       .  S
Zr529       O540   2.414       .  S
O530        H586   0.990       .  S
O530        H594   0.990       .  S
O531        C551   1.289       .  A
O532        C553   1.283       .  A
O533       Zr543   2.487       .  S
O533        C552   1.295       .  A
O534       Zr542   2.415       .  S
O534        C553   1.280       .  A
O535        C552   1.274       .  A
O536       Zr544   2.417       .  S
O536        C551   1.281       .  A
O537       Zr542   2.386       .  S
O537       Zr544   2.375       .  S
O538       Zr543   2.367       .  S
O538       Zr544   2.381       .  S
O538        H573   0.964       .  S
O539       Zr542   2.390       .  S
O539       Zr559   2.425       .  S
O539        H576   0.966       .  S
O540       Zr543   2.386       .  S
O540       Zr559   2.407       .  S
Zr541       O566   2.439       .  S
Zr541       O560   2.413       .  S
Zr541       O568   2.429       .  S
Zr541       O556   2.465       .  S
Zr541       O547   2.401       .  S
Zr541       O548   2.398       .  S
Zr541       O549   2.374       .  S
Zr541       O550   2.393       .  S
Zr542       O561   2.441       .  S
Zr542       O554   2.433       .  S
Zr542       O555   2.391       .  S
Zr542       O548   2.392       .  S
Zr542       O549   2.385       .  S
Zr543       O545   2.433       .  S
Zr543       O567   2.438       .  S
Zr543       O569   2.436       .  S
Zr543       O547   2.407       .  S
Zr543       O550   2.388       .  S
Zr544       O570   2.436       .  S
Zr544       O571   2.436       .  S
Zr544       O546   2.437       .  S
Zr544       O547   2.391       .  S
Zr544       O548   2.397       .  S
O545        H582   0.990       .  S
O546        H577   0.990       .  S
O546        H591   0.990       .  S
O548        H574   0.966       .  S
O549       Zr559   2.363       .  S
O550       Zr559   2.369       .  S
O550        H575   0.967       .  S
C551       C1760   1.478       .  S
C552       C1589   1.487       .  S
C553       C1569   1.473       .  S
O554        H590   0.989       .  S
O555        C557   1.277       .  A
O556        C557   1.290       .  A
C557       C2249   1.468       .  S
O558       Zr559   2.438       .  S
O558        H587   0.990       .  S
Zr559       O562   2.436       .  S
Zr559       O563   2.438       .  S
Zr559       O564   2.469       .  S
O560        C565   1.280       .  A
O561        H578   0.990       .  S
O561        H593   0.990       .  S
O562        H579   0.990       .  S
O563        H583   0.990       .  S
O563        H592   0.990       .  S
O564        C565   1.291       .  A
C565       C1620   1.498       .  S
O566        H585   0.990       .  S
O566        H589   0.990       .  S
O567        H581   0.990       .  S
O567        H588   0.990       .  S
O568        C572   1.285       .  A
O569        C572   1.287       .  A
O570        H580   0.990       .  S
O571        H584   0.990       .  S
C572       C1549   1.473       .  S
Zr595       O596   2.443       .  S
Zr595       O597   2.468       .  S
Zr595       O598   2.443       .  S
Zr595       O601   2.424       .  S
Zr595       O603   2.380       .  S
Zr595       O604   2.372       .  S
Zr595       O605   2.417       .  S
Zr595       O606   2.411       .  S
O596        H652   0.990       .  S
O596        H660   0.990       .  S
O597        C617   1.289       .  A
O598        C619   1.285       .  A
O599       Zr609   2.449       .  S
O599        C618   1.286       .  A
O600       Zr608   2.408       .  S
O600        C619   1.280       .  A
O601        C618   1.284       .  A
O602       Zr610   2.395       .  S
O602        C617   1.279       .  A
O603       Zr608   2.387       .  S
O603       Zr610   2.375       .  S
O604       Zr609   2.371       .  S
O604       Zr610   2.379       .  S
O604        H639   0.964       .  S
O605       Zr608   2.398       .  S
O605       Zr625   2.413       .  S
O605        H642   0.966       .  S
O606       Zr609   2.389       .  S
O606       Zr625   2.404       .  S
Zr607       O632   2.439       .  S
Zr607       O626   2.407       .  S
Zr607       O634   2.437       .  S
Zr607       O622   2.461       .  S
Zr607       O613   2.396       .  S
Zr607       O614   2.398       .  S
Zr607       O615   2.371       .  S
Zr607       O616   2.392       .  S
Zr608       O627   2.439       .  S
Zr608       O620   2.435       .  S
Zr608       O621   2.401       .  S
Zr608       O614   2.389       .  S
Zr608       O615   2.383       .  S
Zr609       O611   2.436       .  S
Zr609       O633   2.439       .  S
Zr609       O635   2.419       .  S
Zr609       O613   2.402       .  S
Zr609       O616   2.391       .  S
Zr610       O636   2.433       .  S
Zr610       O637   2.433       .  S
Zr610       O612   2.438       .  S
Zr610       O613   2.383       .  S
Zr610       O614   2.390       .  S
O611        H648   0.990       .  S
O612        H643   0.990       .  S
O612        H657   0.990       .  S
O614        H640   0.966       .  S
O615       Zr625   2.365       .  S
O616       Zr625   2.375       .  S
O616        H641   0.967       .  S
C617       C1660   1.491       .  S
C618       C1509   1.502       .  S
C619       C1560   1.477       .  S
O620        H656   0.990       .  S
O621        C623   1.279       .  A
O622        C623   1.289       .  A
C623       C2140   1.469       .  S
O624       Zr625   2.439       .  S
O624        H653   0.990       .  S
Zr625       O628   2.439       .  S
Zr625       O629   2.439       .  S
Zr625       O630   2.449       .  S
O626        C631   1.279       .  A
O627        H644   0.990       .  S
O627        H659   0.990       .  S
O628        H645   0.990       .  S
O629        H649   0.990       .  S
O629        H658   0.990       .  S
O630        C631   1.286       .  A
C631       C1540   1.474       .  S
O632        H651   0.991       .  S
O632        H655   0.990       .  S
O633        H647   0.989       .  S
O633        H654   0.989       .  S
O634        C638   1.287       .  A
O635        C638   1.281       .  A
O636        H646   0.990       .  S
O637        H650   0.990       .  S
C638       C1580   1.487       .  S
Zr661       O662   2.442       .  S
Zr661       O663   2.467       .  S
Zr661       O664   2.472       .  S
Zr661       O667   2.406       .  S
Zr661       O669   2.374       .  S
Zr661       O670   2.382       .  S
Zr661       O671   2.407       .  S
Zr661       O672   2.420       .  S
O662        H718   0.990       .  S
O662        H726   0.990       .  S
O663        C683   1.290       .  A
O664        C685   1.289       .  A
O665       Zr675   2.465       .  S
O665        C684   1.290       .  A
O666       Zr674   2.402       .  S
O666        C685   1.279       .  A
O667        C684   1.281       .  A
O668       Zr676   2.399       .  S
O668        C683   1.278       .  A
O669       Zr674   2.384       .  S
O669       Zr676   2.379       .  S
O670       Zr675   2.373       .  S
O670       Zr676   2.381       .  S
O670        H705   0.963       .  S
O671       Zr674   2.386       .  S
O671       Zr691   2.413       .  S
O671        H708   0.966       .  S
O672       Zr675   2.387       .  S
O672       Zr691   2.405       .  S
Zr673       O698   2.446       .  S
Zr673       O692   2.427       .  S
Zr673       O700   2.458       .  S
Zr673       O688   2.479       .  S
Zr673       O679   2.399       .  S
Zr673       O680   2.404       .  S
Zr673       O681   2.373       .  S
Zr673       O682   2.398       .  S
Zr674       O693   2.437       .  S
Zr674       O686   2.435       .  S
Zr674       O687   2.378       .  S
Zr674       O680   2.388       .  S
Zr674       O681   2.382       .  S
Zr675       O677   2.436       .  S
Zr675       O699   2.439       .  S
Zr675       O701   2.418       .  S
Zr675       O679   2.399       .  S
Zr675       O682   2.398       .  S
Zr676       O702   2.436       .  S
Zr676       O703   2.434       .  S
Zr676       O678   2.437       .  S
Zr676       O679   2.384       .  S
Zr676       O680   2.390       .  S
O677        H714   0.990       .  S
O678        H709   0.990       .  S
O678        H723   0.990       .  S
O680        H706   0.966       .  S
O681       Zr691   2.363       .  S
O682       Zr691   2.375       .  S
O682        H707   0.967       .  S
C683       C1600   1.478       .  S
C684       C1769   1.501       .  S
C685       C1469   1.493       .  S
O686        H722   0.990       .  S
O687        C689   1.275       .  A
O688        C689   1.292       .  A
C689       C1880   1.470       .  S
O690       Zr691   2.438       .  S
O690        H719   0.990       .  S
Zr691       O694   2.435       .  S
Zr691       O695   2.440       .  S
Zr691       O696   2.458       .  S
O692        C697   1.285       .  A
O693        H710   0.990       .  S
O693        H725   0.990       .  S
O694        H711   0.990       .  S
O695        H715   0.990       .  S
O695        H724   0.990       .  S
O696        C697   1.287       .  A
C697       C1489   1.507       .  S
O698        H717   0.990       .  S
O698        H721   0.990       .  S
O699        H713   0.990       .  S
O699        H720   0.990       .  S
O700        C704   1.290       .  A
O701        C704   1.283       .  A
O702        H712   0.990       .  S
O703        H716   0.990       .  S
C704       C1449   1.476       .  S
Zr727       O728   2.443       .  S
Zr727       O729   2.461       .  S
Zr727       O730   2.434       .  S
Zr727       O733   2.387       .  S
Zr727       O735   2.374       .  S
Zr727       O736   2.379       .  S
Zr727       O737   2.408       .  S
Zr727       O738   2.413       .  S
O728        H784   0.990       .  S
O728        H792   0.990       .  S
O729        C749   1.289       .  A
O730        C751   1.283       .  A
O731       Zr741   2.470       .  S
O731        C750   1.291       .  A
O732       Zr740   2.420       .  S
O732        C751   1.281       .  A
O733        C750   1.275       .  A
O734       Zr742   2.411       .  S
O734        C749   1.280       .  A
O735       Zr740   2.382       .  S
O735       Zr742   2.381       .  S
O736       Zr741   2.368       .  S
O736       Zr742   2.381       .  S
O736        H771   0.965       .  S
O737       Zr740   2.385       .  S
O737       Zr757   2.415       .  S
O737        H774   0.966       .  S
O738       Zr741   2.383       .  S
O738       Zr757   2.412       .  S
Zr739       O764   2.443       .  S
Zr739       O758   2.428       .  S
Zr739       O766   2.445       .  S
Zr739       O754   2.475       .  S
Zr739       O745   2.402       .  S
Zr739       O746   2.404       .  S
Zr739       O747   2.378       .  S
Zr739       O748   2.396       .  S
Zr740       O759   2.439       .  S
Zr740       O752   2.434       .  S
Zr740       O753   2.387       .  S
Zr740       O746   2.393       .  S
Zr740       O747   2.391       .  S
Zr741       O743   2.434       .  S
Zr741       O765   2.438       .  S
Zr741       O767   2.421       .  S
Zr741       O745   2.405       .  S
Zr741       O748   2.389       .  S
Zr742       O768   2.437       .  S
Zr742       O769   2.435       .  S
Zr742       O744   2.436       .  S
Zr742       O745   2.384       .  S
Zr742       O746   2.393       .  S
O743        H780   0.990       .  S
O744        H775   0.990       .  S
O744        H789   0.990       .  S
O746        H772   0.966       .  S
O747       Zr757   2.362       .  S
O748       Zr757   2.373       .  S
O748        H773   0.967       .  S
C749       C1520   1.474       .  S
C750       C1669   1.488       .  S
C751       C1460   1.474       .  S
O752        H788   0.990       .  S
O753        C755   1.277       .  A
O754        C755   1.291       .  A
C755       C1800   1.473       .  S
O756       Zr757   2.439       .  S
O756        H785   0.990       .  S
Zr757       O760   2.439       .  S
Zr757       O761   2.438       .  S
Zr757       O762   2.466       .  S
O758        C763   1.283       .  A
O759        H776   0.990       .  S
O759        H791   0.990       .  S
O760        H777   0.990       .  S
O761        H781   0.990       .  S
O761        H790   0.990       .  S
O762        C763   1.290       .  A
C763       C1440   1.491       .  S
O764        H783   0.990       .  S
O764        H787   0.990       .  S
O765        H779   0.990       .  S
O765        H786   0.990       .  S
O766        C770   1.287       .  A
O767        C770   1.284       .  A
O768        H778   0.990       .  S
O769        H782   0.990       .  S
C770       C1480   1.473       .  S
Zr793       O794   2.437       .  S
Zr793       O795   2.419   1_545  S
Zr793       O796   2.467       .  S
Zr793       O799   2.431       .  S
Zr793       O801   2.378       .  S
Zr793       O802   2.396   1_545  S
Zr793       O803   2.399       .  S
Zr793       O804   2.399       .  S
O794        H850   0.990       .  S
O794        H858   0.990       .  S
O795        C815   1.280       .  A
O796        C817   1.289       .  A
O797       Zr807   2.425   1_545  S
O797        C816   1.285       .  A
O798       Zr806   2.397       .  S
O798        C817   1.278       .  A
O799        C816   1.285       .  A
O800       Zr808   2.449       .  S
O800        C815   1.288       .  A
O801       Zr806   2.390       .  S
O801       Zr808   2.374   1_545  S
O802       Zr807   2.382       .  S
O802       Zr808   2.371       .  S
O802        H837   0.966       .  S
O803       Zr806   2.392       .  S
O803       Zr823   2.400       .  S
O803        H840   0.965       .  S
O804       Zr807   2.404   1_545  S
O804       Zr823   2.391       .  S
Zr805       O830   2.439   1_546  S
Zr805       O824   2.479       .  S
Zr805       O832   2.410   1_545  S
Zr805       O820   2.459   1_556  S
Zr805       O811   2.417   1_545  S
Zr805       O812   2.407   1_545  S
Zr805       O813   2.374       .  S
Zr805       O814   2.376       .  S
Zr806       O825   2.437       .  S
Zr806       O818   2.433   1_556  S
Zr806       O819   2.407   1_556  S
Zr806       O812   2.387   1_545  S
Zr806       O813   2.390       .  S
Zr807       O809   2.438   1_565  S
Zr807       O831   2.437       .  S
Zr807       O833   2.459       .  S
Zr807       O811   2.386       .  S
Zr807       O814   2.369   1_565  S
Zr808       O834   2.435       .  S
Zr808       O835   2.435       .  S
Zr808       O810   2.435       .  S
Zr808       O811   2.403       .  S
Zr808       O812   2.402       .  S
O809        H846   0.990   1_545  S
O810        H841   0.990       .  S
O810        H855   0.990       .  S
O812        H838   0.965   1_556  S
O813       Zr823   2.379       .  S
O814       Zr823   2.375       .  S
O814        H839   0.961       .  S
C815       C1640   1.488       .  S
C816       C1349   1.478       .  S
C817       C2049   1.475       .  S
O818        H854   0.990       .  S
O819        C821   1.279       .  A
O820        C821   1.289       .  A
C821       C1369   1.475       .  S
O822       Zr823   2.440       .  S
O822        H851   0.990       .  S
Zr823       O826   2.438       .  S
Zr823       O827   2.440       .  S
Zr823       O828   2.417       .  S
O824        C829   1.293       .  A
O825        H842   0.990   1_556  S
O825        H857   0.990       .  S
O826        H843   0.990       .  S
O827        H847   0.990       .  S
O827        H856   0.990       .  S
O828        C829   1.281       .  A
C829       C1420   1.478       .  S
O830        H849   0.990       .  S
O830        H853   0.990       .  S
O831        H845   0.990       .  S
O831        H852   0.990       .  S
O832        C836   1.279       .  A
O833        C836   1.290       .  A
O834        H844   0.990       .  S
O835        H848   0.990       .  S
C836       C1400   1.487       .  S
Zr859       O860   2.436       .  S
Zr859       O861   2.438   1_545  S
Zr859       O862   2.465       .  S
Zr859       O865   2.454       .  S
Zr859       O867   2.383       .  S
Zr859       O868   2.390   1_545  S
Zr859       O869   2.404       .  S
Zr859       O870   2.399       .  S
O860        H916   0.990       .  S
O860        H924   0.990       .  S
O861        C881   1.287       .  A
O862        C883   1.289       .  A
O863       Zr873   2.417       .  S
O863        C882   1.284   1_565  A
O864       Zr872   2.397       .  S
O864        C883   1.278       .  A
O865        C882   1.288       .  A
O866       Zr874   2.454       .  S
O866        C881   1.286       .  A
O867       Zr872   2.393       .  S
O867       Zr874   2.377   1_545  S
O868       Zr873   2.383       .  S
O868       Zr874   2.372       .  S
O868        H903   0.966       .  S
O869       Zr872   2.393       .  S
O869       Zr889   2.391       .  S
O869        H906   0.966       .  S
O870       Zr873   2.397   1_545  S
O870       Zr889   2.391       .  S
Zr871       O896   2.439   1_545  S
Zr871       O890   2.465       .  S
Zr871       O898   2.414   1_545  S
Zr871       O886   2.454       .  S
Zr871       O877   2.418   1_545  S
Zr871       O878   2.409   1_545  S
Zr871       O879   2.371       .  S
Zr871       O880   2.380       .  S
Zr872       O891   2.437       .  S
Zr872       O884   2.437       .  S
Zr872       O885   2.408       .  S
Zr872       O878   2.384   1_545  S
Zr872       O879   2.391       .  S
Zr873       O875   2.435       .  S
Zr873       O897   2.437       .  S
Zr873       O899   2.446       .  S
Zr873       O877   2.393       .  S
Zr873       O880   2.373   1_565  S
Zr874       O900   2.434       .  S
Zr874       O901   2.435       .  S
Zr874       O876   2.439       .  S
Zr874       O877   2.407       .  S
Zr874       O878   2.408       .  S
O875        H912   0.990   1_565  S
O876        H907   0.990       .  S
O876        H921   0.990       .  S
O878        H904   0.967       .  S
O879       Zr889   2.377       .  S
O880       Zr889   2.380       .  S
O880        H905   0.964       .  S
C881       C1740   1.508       .  S
C882       C1380   1.499       .  S
C883       C1960   1.468       .  S
O884        H920   0.990       .  S
O885        C887   1.279       .  A
O886        C887   1.288       .  A
C887       C1360   1.476       .  S
O888       Zr889   2.439       .  S
O888        H917   0.991       .  S
Zr889       O892   2.437       .  S
Zr889       O893   2.439       .  S
Zr889       O894   2.411       .  S
O890        C895   1.288       .  A
O891        H908   0.990       .  S
O891        H923   0.990       .  S
O892        H909   0.990       .  S
O893        H913   0.990       .  S
O893        H922   0.990       .  S
O894        C895   1.281       .  A
C895       C1329   1.481       .  S
O896        H915   0.990       .  S
O896        H919   0.990       .  S
O897        H911   0.990       .  S
O897        H918   0.990       .  S
O898        C902   1.280       .  A
O899        C902   1.286       .  A
O900        H910   0.990       .  S
O901        H914   0.991       .  S
C902       C1309   1.479       .  S
Zr925       O926   2.441   1_556  S
Zr925       O927   2.428   1_455  S
Zr925       O928   2.463       .  S
Zr925       O931   2.437   1_556  S
Zr925       O933   2.380   1_455  S
Zr925       O934   2.394   1_455  S
Zr925       O935   2.403       .  S
Zr925       O936   2.403       .  S
O926        H982   0.991       .  S
O926        H990   0.990       .  S
O927        C947   1.282       .  A
O928        C949   1.287       .  A
O929       Zr939   2.438   1_554  S
O929        C948   1.287       .  A
O930       Zr938   2.390       .  S
O930        C949   1.277       .  A
O931        C948   1.285   1_455  A
O932       Zr940   2.452       .  S
O932        C947   1.287       .  A
O933       Zr938   2.399   1_655  S
O933       Zr940   2.376       .  S
O934       Zr939   2.389       .  S
O934       Zr940   2.375       .  S
O934        H969   0.965       .  S
O935       Zr938   2.398       .  S
O935       Zr955   2.389       .  S
O935        H972   0.965       .  S
O936       Zr939   2.403   1_455  S
O936       Zr955   2.390       .  S
Zr937       O962   2.440       .  S
Zr937       O956   2.469   1_655  S
Zr937       O964   2.402       .  S
Zr937       O952   2.444   1_655  S
Zr937       O943   2.419       .  S
Zr937       O944   2.404       .  S
Zr937       O945   2.374   1_655  S
Zr937       O946   2.381   1_655  S
Zr938       O957   2.435       .  S
Zr938       O950   2.434       .  S
Zr938       O951   2.422       .  S
Zr938       O944   2.382   1_455  S
Zr938       O945   2.389       .  S
Zr939       O941   2.434   1_556  S
Zr939       O963   2.436       .  S
Zr939       O965   2.463       .  S
Zr939       O943   2.391       .  S
Zr939       O946   2.379   1_655  S
Zr940       O966   2.436       .  S
Zr940       O967   2.436       .  S
Zr940       O942   2.439       .  S
Zr940       O943   2.414       .  S
Zr940       O944   2.405       .  S
O941        H978   0.990       .  S
O942        H973   0.990       .  S
O942        H987   0.990       .  S
O944        H970   0.964       .  S
O945       Zr955   2.381       .  S
O946       Zr955   2.382       .  S
O946        H971   0.964       .  S
C947       C2200   1.489       .  S
C948       C1269   1.490       .  S
C949       C1529   1.464       .  S
O950        H986   0.990       .  S
O951        C953   1.283       .  A
O952        C953   1.286       .  A
C953       C1249   1.490       .  S
O954       Zr955   2.440       .  S
O954        H983   0.990       .  S
Zr955       O958   2.436       .  S
Zr955       O959   2.441   1_556  S
Zr955       O960   2.409       .  S
O956        C961   1.290       .  A
O957        H974   0.990       .  S
O957        H989   0.990       .  S
O958        H975   0.990       .  S
O959        H979   0.991   1_554  S
O959        H988   0.990       .  S
O960        C961   1.278       .  A
C961       C1409   1.474       .  S
O962        H981   0.989       .  S
O962        H985   0.990       .  S
O963        H977   0.990       .  S
O963        H984   0.990   1_556  S
O964        C968   1.277       .  A
O965        C968   1.290       .  A
O966        H976   0.990       .  S
O967        H980   0.990       .  S
C968       C1289   1.487       .  S
Zr991       O992   2.438       .  S
Zr991       O993   2.430   1_455  S
Zr991       O994   2.464       .  S
Zr991       O997   2.447       .  S
Zr991       O999   2.384   1_455  S
Zr991      O1000   2.389   1_455  S
Zr991      O1001   2.405       .  S
Zr991      O1002   2.396       .  S
O992       H1048   0.990       .  S
O992       H1056   0.990       .  S
O993       C1013   1.282       .  A
O994       C1015   1.287       .  A
O995      Zr1005   2.430       .  S
O995       C1014   1.284       .  A
O996      Zr1004   2.407       .  S
O996       C1015   1.280       .  A
O997       C1014   1.288   1_455  A
O998      Zr1006   2.441       .  S
O998       C1013   1.284       .  A
O999      Zr1004   2.402   1_655  S
O999      Zr1006   2.377       .  S
O1000     Zr1005   2.392       .  S
O1000     Zr1006   2.370       .  S
O1000      H1035   0.965       .  S
O1001     Zr1004   2.394       .  S
O1001     Zr1021   2.391       .  S
O1001      H1038   0.965       .  S
O1002     Zr1005   2.405   1_455  S
O1002     Zr1021   2.386       .  S
Zr1003     O1028   2.441       .  S
Zr1003     O1022   2.474   1_655  S
Zr1003     O1030   2.413       .  S
Zr1003     O1018   2.443   1_655  S
Zr1003     O1009   2.420       .  S
Zr1003     O1010   2.417       .  S
Zr1003     O1011   2.377   1_655  S
Zr1003     O1012   2.377   1_655  S
Zr1004     O1023   2.435       .  S
Zr1004     O1016   2.435       .  S
Zr1004     O1017   2.428       .  S
Zr1004     O1010   2.395   1_455  S
Zr1004     O1011   2.390       .  S
Zr1005     O1007   2.437       .  S
Zr1005     O1029   2.439       .  S
Zr1005     O1031   2.453       .  S
Zr1005     O1009   2.393       .  S
Zr1005     O1012   2.385   1_655  S
Zr1006     O1032   2.439       .  S
Zr1006     O1033   2.435       .  S
Zr1006     O1008   2.435       .  S
Zr1006     O1009   2.408       .  S
Zr1006     O1010   2.404       .  S
O1007      H1044   0.990       .  S
O1008      H1039   0.990       .  S
O1008      H1053   0.990       .  S
O1010      H1036   0.963       .  S
O1011     Zr1021   2.382       .  S
O1012     Zr1021   2.388       .  S
O1012      H1037   0.965       .  S
C1013      C2080   1.489       .  S
C1014      C1260   1.480   1_655  S
C1015      C1609   1.479       .  S
O1016      H1052   0.990       .  S
O1017      C1019   1.282       .  A
O1018      C1019   1.285       .  A
C1019      C1280   1.473       .  S
O1020     Zr1021   2.440       .  S
O1020      H1049   0.990       .  S
Zr1021     O1024   2.437       .  S
Zr1021     O1025   2.437       .  S
Zr1021     O1026   2.401       .  S
O1022      C1027   1.290       .  A
O1023      H1040   0.990       .  S
O1023      H1055   0.990       .  S
O1024      H1041   0.990       .  S
O1025      H1045   0.990       .  S
O1025      H1054   0.990       .  S
O1026      C1027   1.279       .  A
C1027      C1340   1.479       .  S
O1028      H1047   0.990       .  S
O1028      H1051   0.990       .  S
O1029      H1043   0.990       .  S
O1029      H1050   0.989       .  S
O1030      C1034   1.280       .  A
O1031      C1034   1.288       .  A
O1032      H1042   0.990       .  S
O1033      H1046   0.990       .  S
C1034      C1229   1.485       .  S
Zr1057     O1058   2.432   1_556  S
Zr1057     O1059   2.461       .  S
Zr1057     O1060   2.455   1_556  S
Zr1057     O1063   2.409       .  S
Zr1057     O1065   2.376       .  S
Zr1057     O1066   2.375       .  S
Zr1057     O1067   2.409       .  S
Zr1057     O1068   2.413       .  S
O1058      H1114   0.990       .  S
O1058      H1122   0.989       .  S
O1059      C1079   1.288       .  A
O1060      C1081   1.288       .  A
O1061     Zr1071   2.455       .  S
O1061      C1080   1.288       .  A
O1062     Zr1070   2.414   1_554  S
O1062      C1081   1.282       .  A
O1063      C1080   1.279       .  A
O1064     Zr1072   2.398       .  S
O1064      C1079   1.276       .  A
O1065     Zr1070   2.390       .  S
O1065     Zr1072   2.379       .  S
O1066     Zr1071   2.380       .  S
O1066     Zr1072   2.379       .  S
O1066      H1101   0.964       .  S
O1067     Zr1070   2.390       .  S
O1067     Zr1087   2.404       .  S
O1067      H1104   0.966   1_556  S
O1068     Zr1071   2.386       .  S
O1068     Zr1087   2.408       .  S
Zr1069     O1094   2.439       .  S
Zr1069     O1088   2.427       .  S
Zr1069     O1096   2.450       .  S
Zr1069     O1084   2.475       .  S
Zr1069     O1075   2.397       .  S
Zr1069     O1076   2.406       .  S
Zr1069     O1077   2.381       .  S
Zr1069     O1078   2.396       .  S
Zr1070     O1089   2.436   1_556  S
Zr1070     O1082   2.432   1_556  S
Zr1070     O1083   2.402       .  S
Zr1070     O1076   2.397       .  S
Zr1070     O1077   2.391       .  S
Zr1071     O1073   2.433       .  S
Zr1071     O1095   2.440       .  S
Zr1071     O1097   2.428       .  S
Zr1071     O1075   2.399       .  S
Zr1071     O1078   2.392       .  S
Zr1072     O1098   2.435       .  S
Zr1072     O1099   2.435       .  S
Zr1072     O1074   2.438       .  S
Zr1072     O1075   2.385       .  S
Zr1072     O1076   2.387       .  S
O1073      H1110   0.990       .  S
O1074      H1105   0.990       .  S
O1074      H1119   0.990       .  S
O1076      H1102   0.966       .  S
O1077     Zr1087   2.372       .  S
O1078     Zr1087   2.381       .  S
O1078      H1103   0.966       .  S
C1079      C1389   1.467       .  S
C1080      C1300   1.479       .  S
C1081      C1220   1.492       .  S
O1082      H1118   0.990   1_554  S
O1083      C1085   1.279       .  A
O1084      C1085   1.291       .  A
C1085      C1889   1.476       .  S
O1086     Zr1087   2.441       .  S
O1086      H1115   0.990       .  S
Zr1087     O1090   2.438       .  S
Zr1087     O1091   2.438       .  S
Zr1087     O1092   2.453       .  S
O1088      C1093   1.282       .  A
O1089      H1106   0.990       .  S
O1089      H1121   0.990       .  S
O1090      H1107   0.990       .  S
O1091      H1111   0.990       .  S
O1091      H1120   0.989       .  S
O1092      C1093   1.288       .  A
C1093      C1429   1.496       .  S
O1094      H1113   0.990       .  S
O1094      H1117   0.990       .  S
O1095      H1109   0.989       .  S
O1095      H1116   0.990       .  S
O1096      C1100   1.289       .  A
O1097      C1100   1.284       .  A
O1098      H1108   0.990       .  S
O1099      H1112   0.990       .  S
C1100      C1189   1.488       .  S
Zr1123     O1124   2.443       .  S
Zr1123     O1125   2.461       .  S
Zr1123     O1126   2.458       .  S
Zr1123     O1129   2.419       .  S
Zr1123     O1131   2.382       .  S
Zr1123     O1132   2.382       .  S
Zr1123     O1133   2.410       .  S
Zr1123     O1134   2.410       .  S
O1124      H1180   0.990       .  S
O1124      H1188   0.990       .  S
O1125      C1145   1.288       .  A
O1126      C1147   1.286       .  A
O1127     Zr1137   2.458       .  S
O1127      C1146   1.288       .  A
O1128     Zr1136   2.419       .  S
O1128      C1147   1.282       .  A
O1129      C1146   1.283       .  A
O1130     Zr1138   2.406       .  S
O1130      C1145   1.278       .  A
O1131     Zr1136   2.394       .  S
O1131     Zr1138   2.386       .  S
O1132     Zr1137   2.381       .  S
O1132     Zr1138   2.381       .  S
O1132      H1167   0.964       .  S
O1133     Zr1136   2.391       .  S
O1133     Zr1153   2.410       .  S
O1133      H1170   0.966       .  S
O1134     Zr1137   2.389       .  S
O1134     Zr1153   2.401       .  S
Zr1135     O1160   2.442       .  S
Zr1135     O1154   2.449       .  S
Zr1135     O1162   2.431       .  S
Zr1135     O1150   2.465       .  S
Zr1135     O1141   2.404       .  S
Zr1135     O1142   2.413       .  S
Zr1135     O1143   2.379       .  S
Zr1135     O1144   2.393       .  S
Zr1136     O1155   2.438       .  S
Zr1136     O1148   2.433       .  S
Zr1136     O1149   2.401       .  S
Zr1136     O1142   2.399       .  S
Zr1136     O1143   2.397       .  S
Zr1137     O1139   2.433       .  S
Zr1137     O1161   2.441       .  S
Zr1137     O1163   2.434       .  S
Zr1137     O1141   2.398       .  S
Zr1137     O1144   2.394       .  S
Zr1138     O1164   2.438       .  S
Zr1138     O1165   2.435       .  S
Zr1138     O1140   2.438       .  S
Zr1138     O1141   2.380       .  S
Zr1138     O1142   2.395       .  S
O1139      H1176   0.990       .  S
O1140      H1171   0.991       .  S
O1140      H1185   0.990       .  S
O1142      H1168   0.966       .  S
O1143     Zr1153   2.372       .  S
O1144     Zr1153   2.380       .  S
O1144      H1169   0.966       .  S
C1145      C1320   1.475       .  S
C1146      C1240   1.500       .  S
C1147      C1200   1.490       .  S
O1148      H1184   0.990       .  S
O1149      C1151   1.279       .  A
O1150      C1151   1.288       .  A
C1151      C1820   1.470       .  S
O1152     Zr1153   2.439       .  S
O1152      H1181   0.991       .  S
Zr1153     O1156   2.438       .  S
Zr1153     O1157   2.438       .  S
Zr1153     O1158   2.440       .  S
O1154      C1159   1.286       .  A
O1155      H1172   0.990       .  S
O1155      H1187   0.990       .  S
O1156      H1173   0.990       .  S
O1157      H1177   0.990       .  S
O1157      H1186   0.989       .  S
O1158      C1159   1.284       .  A
C1159      C1500   1.502       .  S
O1160      H1179   0.990       .  S
O1160      H1183   0.990       .  S
O1161      H1175   0.990       .  S
O1161      H1182   0.990       .  S
O1162      C1166   1.284       .  A
O1163      C1166   1.286       .  A
O1164      H1174   0.990       .  S
O1165      H1178   0.990       .  S
C1166      C1209   1.473       .  S
C1189      C1190   1.416       .  A
C1189      C1194   1.407       .  A
C1190      C1191   1.403       .  A
C1190     Br1206   1.921       .  S
C1191      C1192   1.402       .  A
C1191      H1195   1.083       .  S
C1192      C1196   1.484       .  S
C1192      C1193   1.407       .  A
C1193      C1194   1.402       .  A
C1193     Br1205   1.918       .  S
C1194      H1197   1.083       .  S
C1196      C1198   1.404       .  A
C1196      C1202   1.405       .  A
C1198      C1199   1.407       .  A
C1198      H1203   1.083       .  S
C1199      C1200   1.415       .  A
C1199     Br1207   1.919       .  S
C1200      C1201   1.408       .  A
C1201      C1202   1.397       .  A
C1201      H1204   1.083       .  S
C1202     Br1208   1.919       .  S
C1209      C1210   1.411       .  A
C1209      C1214   1.406       .  A
C1210      C1211   1.395       .  A
C1210     Br1226   1.918       .  S
C1211      C1212   1.399       .  A
C1211      H1215   1.084       .  S
C1212      C1216   1.470       .  S
C1212      C1213   1.406       .  A
C1213      C1214   1.399       .  A
C1213     Br1225   1.919       .  S
C1214      H1217   1.084       .  S
C1216      C1218   1.396       .  A
C1216      C1222   1.402       .  A
C1218      C1219   1.395       .  A
C1218      H1223   1.084       .  S
C1219      C1220   1.418       .  A
C1219     Br1227   1.910       .  S
C1220      C1221   1.413       .  A
C1221      C1222   1.397       .  A
C1221      H1224   1.083       .  S
C1222     Br1228   1.919       .  S
C1229      C1230   1.411       .  A
C1229      C1234   1.408       .  A
C1230      C1231   1.405       .  A
C1230     Br1246   1.919       .  S
C1231      C1232   1.406       .  A
C1231      H1235   1.083       .  S
C1232      C1236   1.484   1_545  S
C1232      C1233   1.406       .  A
C1233      C1234   1.397       .  A
C1233     Br1245   1.920       .  S
C1234      H1237   1.084       .  S
C1236      C1238   1.403       .  A
C1236      C1242   1.404       .  A
C1238      C1239   1.404       .  A
C1238      H1243   1.084       .  S
C1239      C1240   1.419       .  A
C1239     Br1247   1.919       .  S
C1240      C1241   1.413       .  A
C1241      C1242   1.398       .  A
C1241      H1244   1.083       .  S
C1242     Br1248   1.919       .  S
C1249      C1250   1.416       .  A
C1249      C1254   1.409       .  A
C1250      C1251   1.405       .  A
C1250     Br1266   1.920       .  S
C1251      C1252   1.403       .  A
C1251      H1255   1.083       .  S
C1252      C1256   1.481       .  S
C1252      C1253   1.405       .  A
C1253      C1254   1.397       .  A
C1253     Br1265   1.920       .  S
C1254      H1257   1.083       .  S
C1256      C1258   1.402   1_455  A
C1256      C1262   1.408       .  A
C1258      C1259   1.401       .  A
C1258      H1263   1.084       .  S
C1259      C1260   1.412   1_655  A
C1259     Br1267   1.918       .  S
C1260      C1261   1.405       .  A
C1261      C1262   1.400       .  A
C1261      H1264   1.084       .  S
C1262     Br1268   1.918       .  S
C1269      C1270   1.418       .  A
C1269      C1274   1.408       .  A
C1270      C1271   1.403   1_655  A
C1270     Br1286   1.922       .  S
C1271      C1272   1.401       .  A
C1271      H1275   1.084       .  S
C1272      C1276   1.480       .  S
C1272      C1273   1.404   1_455  A
C1273      C1274   1.399       .  A
C1273     Br1285   1.919   1_655  S
C1274      H1277   1.083       .  S
C1276      C1278   1.403   1_455  A
C1276      C1282   1.408       .  A
C1278      C1279   1.401       .  A
C1278      H1283   1.083       .  S
C1279      C1280   1.410   1_655  A
C1279     Br1287   1.920       .  S
C1280      C1281   1.403       .  A
C1281      C1282   1.401       .  A
C1281      H1284   1.083       .  S
C1282     Br1288   1.918       .  S
C1289      C1290   1.420       .  A
C1289      C1294   1.408       .  A
C1290      C1291   1.392       .  A
C1290     Br1306   1.923       .  S
C1291      C1292   1.396       .  A
C1291      H1295   1.084       .  S
C1292      C1296   1.478   1_545  S
C1292      C1293   1.409       .  A
C1293      C1294   1.406       .  A
C1293     Br1305   1.918       .  S
C1294      H1297   1.083       .  S
C1296      C1298   1.399       .  A
C1296      C1302   1.409       .  A
C1298      C1299   1.394       .  A
C1298      H1303   1.084       .  S
C1299      C1300   1.414       .  A
C1299     Br1307   1.919       .  S
C1300      C1301   1.405       .  A
C1301      C1302   1.404       .  A
C1301      H1304   1.083       .  S
C1302     Br1308   1.917       .  S
C1309      C1310   1.413       .  A
C1309      C1314   1.404       .  A
C1310      C1311   1.394       .  A
C1310     Br1326   1.919       .  S
C1311      C1312   1.399       .  A
C1311      H1315   1.084       .  S
C1312      C1316   1.483   1_455  S
C1312      C1313   1.413       .  A
C1313      C1314   1.404       .  A
C1313     Br1325   1.918       .  S
C1314      H1317   1.083       .  S
C1316      C1318   1.403       .  A
C1316      C1322   1.410       .  A
C1318      C1319   1.398       .  A
C1318      H1323   1.084       .  S
C1319      C1320   1.411       .  A
C1319     Br1327   1.920       .  S
C1320      C1321   1.405       .  A
C1321      C1322   1.401       .  A
C1321      H1324   1.084       .  S
C1322     Br1328   1.918   1_655  S
C1329      C1330   1.409       .  A
C1329      C1334   1.406       .  A
C1330      C1331   1.408       .  A
C1330     Br1346   1.916       .  S
C1331      C1332   1.408       .  A
C1331      H1335   1.083       .  S
C1332      C1336   1.482       .  S
C1332      C1333   1.404       .  A
C1333      C1334   1.394       .  A
C1333     Br1345   1.919       .  S
C1334      H1337   1.083       .  S
C1336      C1338   1.402       .  A
C1336      C1342   1.409       .  A
C1338      C1339   1.397       .  A
C1338      H1343   1.084       .  S
C1339      C1340   1.410       .  A
C1339     Br1347   1.918       .  S
C1340      C1341   1.407       .  A
C1341      C1342   1.405       .  A
C1341      H1344   1.084       .  S
C1342     Br1348   1.917       .  S
C1349      C1350   1.413       .  A
C1349      C1354   1.405       .  A
C1350      C1351   1.403       .  A
C1350     Br1366   1.922       .  S
C1351      C1352   1.404       .  A
C1351      H1355   1.084       .  S
C1352      C1356   1.475       .  S
C1352      C1353   1.404       .  A
C1353      C1354   1.395       .  A
C1353     Br1365   1.917       .  S
C1354      H1357   1.084       .  S
C1356      C1358   1.400       .  A
C1356      C1362   1.406       .  A
C1358      C1359   1.398       .  A
C1358      H1363   1.084   1_545  S
C1359      C1360   1.410       .  A
C1359     Br1367   1.918   1_545  S
C1360      C1361   1.407       .  A
C1361      C1362   1.401       .  A
C1361      H1364   1.084       .  S
C1362     Br1368   1.918       .  S
C1369      C1370   1.413   1_545  A
C1369      C1374   1.403       .  A
C1370      C1371   1.396       .  A
C1370     Br1386   1.921       .  S
C1371      C1372   1.399   1_565  A
C1371      H1375   1.084       .  S
C1372      C1376   1.479       .  S
C1372      C1373   1.410       .  A
C1373      C1374   1.403       .  A
C1373     Br1385   1.919       .  S
C1374      H1377   1.083       .  S
C1376      C1378   1.401       .  A
C1376      C1382   1.404       .  A
C1378      C1379   1.402       .  A
C1378      H1383   1.084       .  S
C1379      C1380   1.420       .  A
C1379     Br1387   1.918       .  S
C1380      C1381   1.414   1_545  A
C1381      C1382   1.395   1_565  A
C1381      H1384   1.083       .  S
C1382     Br1388   1.921   1_545  S
C1389      C1390   1.410       .  A
C1389      C1394   1.400       .  A
C1390      C1391   1.393       .  A
C1390     Br1406   1.920       .  S
C1391      C1392   1.398       .  A
C1391      H1395   1.084       .  S
C1392      C1396   1.481   1_655  S
C1392      C1393   1.415       .  A
C1393      C1394   1.403       .  A
C1393     Br1405   1.919   1_656  S
C1394      H1397   1.083   1_556  S
C1396      C1398   1.396       .  A
C1396      C1402   1.412       .  A
C1398      C1399   1.394       .  A
C1398      H1403   1.084       .  S
C1399      C1400   1.419       .  A
C1399     Br1407   1.922       .  S
C1400      C1401   1.406       .  A
C1401      C1402   1.403       .  A
C1401      H1404   1.083       .  S
C1402     Br1408   1.920       .  S
C1409      C1410   1.412       .  A
C1409      C1414   1.403       .  A
C1410      C1411   1.401       .  A
C1410     Br1426   1.919       .  S
C1411      C1412   1.401       .  A
C1411      H1415   1.084       .  S
C1412      C1416   1.482       .  S
C1412      C1413   1.410       .  A
C1413      C1414   1.403       .  A
C1413     Br1425   1.918       .  S
C1414      H1417   1.083       .  S
C1416      C1418   1.397       .  A
C1416      C1422   1.410       .  A
C1418      C1419   1.399       .  A
C1418      H1423   1.084       .  S
C1419      C1420   1.415       .  A
C1419     Br1427   1.913       .  S
C1420      C1421   1.404       .  A
C1421      C1422   1.404       .  A
C1421      H1424   1.083       .  S
C1422     Br1428   1.917       .  S
C1429      C1430   1.420       .  A
C1429      C1434   1.409       .  A
C1430      C1431   1.402       .  A
C1430     Br1446   1.923       .  S
C1431      C1432   1.400       .  A
C1431      H1435   1.084       .  S
C1432      C1436   1.488       .  S
C1432      C1433   1.408       .  A
C1433      C1434   1.405       .  A
C1433     Br1445   1.917       .  S
C1434      H1437   1.083       .  S
C1436      C1438   1.402       .  A
C1436      C1442   1.409       .  A
C1438      C1439   1.404       .  A
C1438      H1443   1.084       .  S
C1439      C1440   1.417       .  A
C1439     Br1447   1.920       .  S
C1440      C1441   1.406       .  A
C1441      C1442   1.405       .  A
C1441      H1444   1.083       .  S
C1442     Br1448   1.917       .  S
C1449      C1450   1.413       .  A
C1449      C1454   1.403       .  A
C1450      C1451   1.397       .  A
C1450     Br1466   1.920       .  S
C1451      C1452   1.398       .  A
C1451      H1455   1.084       .  S
C1452      C1456   1.476       .  S
C1452      C1453   1.410       .  A
C1453      C1454   1.402       .  A
C1453     Br1465   1.918       .  S
C1454      H1457   1.083       .  S
C1456      C1458   1.401       .  A
C1456      C1462   1.407       .  A
C1458      C1459   1.398       .  A
C1458      H1463   1.083       .  S
C1459      C1460   1.410       .  A
C1459     Br1467   1.919       .  S
C1460      C1461   1.405       .  A
C1461      C1462   1.400       .  A
C1461      H1464   1.084       .  S
C1462     Br1468   1.918       .  S
C1469      C1470   1.415       .  A
C1469      C1474   1.412       .  A
C1470      C1471   1.406       .  A
C1470     Br1486   1.918       .  S
C1471      C1472   1.404   1_554  A
C1471      H1475   1.083   1_554  S
C1472      C1476   1.476       .  S
C1472      C1473   1.401   1_556  A
C1473      C1474   1.395       .  A
C1473     Br1485   1.921   1_554  S
C1474      H1477   1.083       .  S
C1476      C1478   1.400       .  A
C1476      C1482   1.407       .  A
C1478      C1479   1.397       .  A
C1478      H1483   1.083       .  S
C1479      C1480   1.410       .  A
C1479     Br1487   1.920       .  S
C1480      C1481   1.405       .  A
C1481      C1482   1.402       .  A
C1481      H1484   1.084       .  S
C1482     Br1488   1.918       .  S
C1489      C1490   1.424       .  A
C1489      C1494   1.413       .  A
C1490      C1491   1.408       .  A
C1490     Br1506   1.922       .  S
C1491      C1492   1.402       .  A
C1491      H1495   1.083       .  S
C1492      C1496   1.489       .  S
C1492      C1493   1.405       .  A
C1493      C1494   1.400       .  A
C1493     Br1505   1.920       .  S
C1494      H1497   1.083       .  S
C1496      C1498   1.401       .  A
C1496      C1502   1.406       .  A
C1498      C1499   1.402       .  A
C1498      H1503   1.084       .  S
C1499      C1500   1.420       .  A
C1499     Br1507   1.921       .  S
C1500      C1501   1.413       .  A
C1501      C1502   1.406       .  A
C1501      H1504   1.082       .  S
C1502     Br1508   1.918       .  S
C1509      C1510   1.422       .  A
C1509      C1514   1.412       .  A
C1510      C1511   1.406       .  A
C1510     Br1526   1.921       .  S
C1511      C1512   1.403       .  A
C1511      H1515   1.084       .  S
C1512      C1516   1.484       .  S
C1512      C1513   1.403       .  A
C1513      C1514   1.397       .  A
C1513     Br1525   1.920       .  S
C1514      H1517   1.083       .  S
C1516      C1518   1.404       .  A
C1516      C1522   1.409       .  A
C1518      C1519   1.399       .  A
C1518      H1523   1.083       .  S
C1519      C1520   1.409       .  A
C1519     Br1527   1.918       .  S
C1520      C1521   1.405       .  A
C1521      C1522   1.402       .  A
C1521      H1524   1.083       .  S
C1522     Br1528   1.918       .  S
C1529      C1530   1.406       .  A
C1529      C1534   1.403       .  A
C1530      C1531   1.393       .  A
C1530     Br1546   1.919       .  S
C1531      C1532   1.401       .  A
C1531      H1535   1.084       .  S
C1532      C1536   1.477       .  S
C1532      C1533   1.410       .  A
C1533      C1534   1.402       .  A
C1533     Br1545   1.919       .  S
C1534      H1537   1.084       .  S
C1536      C1538   1.399       .  A
C1536      C1542   1.412       .  A
C1538      C1539   1.396       .  A
C1538      H1543   1.083       .  S
C1539      C1540   1.413       .  A
C1539     Br1547   1.920       .  S
C1540      C1541   1.402       .  A
C1541      C1542   1.399       .  A
C1541      H1544   1.084       .  S
C1542     Br1548   1.921       .  S
C1549      C1550   1.409       .  A
C1549      C1554   1.405       .  A
C1550      C1551   1.397       .  A
C1550     Br1566   1.919       .  S
C1551      C1552   1.400       .  A
C1551      H1555   1.084       .  S
C1552      C1556   1.471       .  S
C1552      C1553   1.405       .  A
C1553      C1554   1.400       .  A
C1553     Br1565   1.918       .  S
C1554      H1557   1.084       .  S
C1556      C1558   1.402       .  A
C1556      C1562   1.404       .  A
C1558      C1559   1.400       .  A
C1558      H1563   1.083       .  S
C1559      C1560   1.411       .  A
C1559     Br1567   1.919       .  S
C1560      C1561   1.407       .  A
C1561      C1562   1.394       .  A
C1561      H1564   1.084       .  S
C1562     Br1568   1.919       .  S
C1569      C1570   1.413       .  A
C1569      C1574   1.403       .  A
C1570      C1571   1.399       .  A
C1570     Br1586   1.919       .  S
C1571      C1572   1.402       .  A
C1571      H1575   1.084       .  S
C1572      C1576   1.472   1_554  S
C1572      C1573   1.406       .  A
C1573      C1574   1.394       .  A
C1573     Br1585   1.921       .  S
C1574      H1577   1.083       .  S
C1576      C1578   1.396       .  A
C1576      C1582   1.405       .  A
C1578      C1579   1.393       .  A
C1578      H1583   1.084       .  S
C1579      C1580   1.421       .  A
C1579     Br1587   1.918       .  S
C1580      C1581   1.410       .  A
C1581      C1582   1.398       .  A
C1581      H1584   1.083       .  S
C1582     Br1588   1.920       .  S
C1589      C1590   1.421       .  A
C1589      C1594   1.406       .  A
C1590      C1591   1.390       .  A
C1590     Br1606   1.922       .  S
C1591      C1592   1.393       .  A
C1591      H1595   1.084       .  S
C1592      C1596   1.481       .  S
C1592      C1593   1.413       .  A
C1593      C1594   1.408       .  A
C1593     Br1605   1.916       .  S
C1594      H1597   1.083       .  S
C1596      C1598   1.403       .  A
C1596      C1602   1.408       .  A
C1598      C1599   1.398       .  A
C1598      H1603   1.084       .  S
C1599      C1600   1.412       .  A
C1599     Br1607   1.915       .  S
C1600      C1601   1.406       .  A
C1601      C1602   1.400       .  A
C1601      H1604   1.084       .  S
C1602     Br1608   1.916       .  S
C1609      C1610   1.410       .  A
C1609      C1614   1.405       .  A
C1610      C1611   1.398       .  A
C1610     Br1626   1.921       .  S
C1611      C1612   1.401       .  A
C1611      H1615   1.084       .  S
C1612      C1616   1.485       .  S
C1612      C1613   1.410       .  A
C1613      C1614   1.407       .  A
C1613     Br1625   1.916       .  S
C1614      H1617   1.083       .  S
C1616      C1618   1.399       .  A
C1616      C1622   1.407       .  A
C1618      C1619   1.404       .  A
C1618      H1623   1.084       .  S
C1619      C1620   1.424       .  A
C1619     Br1627   1.925       .  S
C1620      C1621   1.408       .  A
C1621      C1622   1.403       .  A
C1621      H1624   1.083       .  S
C1622     Br1628   1.919       .  S
C1629      C1630   1.414       .  A
C1629      C1634   1.405       .  A
C1630      C1631   1.397       .  A
C1630     Br1646   1.923       .  S
C1631      C1632   1.400       .  A
C1631      H1635   1.084       .  S
C1632      C1636   1.476       .  S
C1632      C1633   1.407       .  A
C1633      C1634   1.402       .  A
C1633     Br1645   1.917       .  S
C1634      H1637   1.083       .  S
C1636      C1638   1.400       .  A
C1636      C1642   1.404       .  A
C1638      C1639   1.401       .  A
C1638      H1643   1.084       .  S
C1639      C1640   1.420       .  A
C1639     Br1647   1.924   1_565  S
C1640      C1641   1.408       .  A
C1641      C1642   1.399       .  A
C1641      H1644   1.083       .  S
C1642     Br1648   1.919       .  S
C1649      C1650   1.414       .  A
C1649      C1654   1.405       .  A
C1650      C1651   1.396       .  A
C1650     Br1666   1.921       .  S
C1651      C1652   1.401       .  A
C1651      H1655   1.084       .  S
C1652      C1656   1.489       .  S
C1652      C1653   1.413       .  A
C1653      C1654   1.407       .  A
C1653     Br1665   1.917       .  S
C1654      H1657   1.083       .  S
C1656      C1658   1.408       .  A
C1656      C1662   1.406       .  A
C1658      C1659   1.409       .  A
C1658      H1663   1.083       .  S
C1659      C1660   1.416       .  A
C1659     Br1667   1.920       .  S
C1660      C1661   1.409       .  A
C1661      C1662   1.393       .  A
C1661      H1664   1.084       .  S
C1662     Br1668   1.922       .  S
C1669      C1670   1.424       .  A
C1669      C1674   1.406       .  A
C1670      C1671   1.394       .  A
C1670     Br1686   1.924       .  S
C1671      C1672   1.394       .  A
C1671      H1675   1.084       .  S
C1672      C1676   1.475       .  S
C1672      C1673   1.408       .  A
C1673      C1674   1.402       .  A
C1673     Br1685   1.917       .  S
C1674      H1677   1.083       .  S
C1676      C1678   1.400       .  A
C1676      C1682   1.406       .  A
C1678      C1679   1.400       .  A
C1678      H1683   1.084       .  S
C1679      C1680   1.414       .  A
C1679     Br1687   1.917       .  S
C1680      C1681   1.406       .  A
C1681      C1682   1.398       .  A
C1681      H1684   1.084       .  S
C1682     Br1688   1.919       .  S
C1689      C1690   1.414       .  A
C1689      C1694   1.407       .  A
C1690      C1691   1.396       .  A
C1690     Br1706   1.917       .  S
C1691      C1692   1.398       .  A
C1691      H1695   1.084       .  S
C1692      C1696   1.470       .  S
C1692      C1693   1.406       .  A
C1693      C1694   1.397       .  A
C1693     Br1705   1.919       .  S
C1694      H1697   1.084       .  S
C1696      C1698   1.401       .  A
C1696      C1702   1.406       .  A
C1698      C1699   1.398       .  A
C1698      H1703   1.084       .  S
C1699      C1700   1.413       .  A
C1699     Br1707   1.922       .  S
C1700      C1701   1.403       .  A
C1701      C1702   1.392       .  A
C1701      H1704   1.083       .  S
C1702     Br1708   1.919       .  S
C1709      C1710   1.407       .  A
C1709      C1714   1.404       .  A
C1710      C1711   1.395       .  A
C1710     Br1726   1.919       .  S
C1711      C1712   1.400       .  A
C1711      H1715   1.083       .  S
C1712      C1716   1.465       .  S
C1712      C1713   1.405       .  A
C1713      C1714   1.396       .  A
C1713     Br1725   1.920       .  S
C1714      H1717   1.084       .  S
C1716      C1718   1.400   1_556  A
C1716      C1722   1.401   1_556  A
C1718      C1719   1.398       .  A
C1718      H1723   1.084   1_554  S
C1719      C1720   1.414       .  A
C1719     Br1727   1.922       .  S
C1720      C1721   1.406       .  A
C1721      C1722   1.392       .  A
C1721      H1724   1.083       .  S
C1722     Br1728   1.919   1_554  S
C1729      C1730   1.419       .  A
C1729      C1734   1.411       .  A
C1730      C1731   1.409       .  A
C1730     Br1746   1.919       .  S
C1731      C1732   1.406       .  A
C1731      H1735   1.083       .  S
C1732      C1736   1.495       .  S
C1732      C1733   1.407       .  A
C1733      C1734   1.404       .  A
C1733     Br1745   1.918       .  S
C1734      H1737   1.083       .  S
C1736      C1738   1.403       .  A
C1736      C1742   1.407       .  A
C1738      C1739   1.407       .  A
C1738      H1743   1.083       .  S
C1739      C1740   1.423       .  A
C1739     Br1747   1.922       .  S
C1740      C1741   1.413       .  A
C1741      C1742   1.403       .  A
C1741      H1744   1.083       .  S
C1742     Br1748   1.918       .  S
C1749      C1750   1.415       .  A
C1749      C1754   1.414       .  A
C1750      C1751   1.407       .  A
C1750     Br1766   1.918       .  S
C1751      C1752   1.405       .  A
C1751      H1755   1.083       .  S
C1752      C1756   1.480       .  S
C1752      C1753   1.400       .  A
C1753      C1754   1.396       .  A
C1753     Br1765   1.919       .  S
C1754      H1757   1.083       .  S
C1756      C1758   1.404       .  A
C1756      C1762   1.405       .  A
C1758      C1759   1.401       .  A
C1758      H1763   1.083       .  S
C1759      C1760   1.409       .  A
C1759     Br1767   1.918       .  S
C1760      C1761   1.407       .  A
C1761      C1762   1.401       .  A
C1761      H1764   1.083       .  S
C1762     Br1768   1.919       .  S
C1769      C1770   1.419       .  A
C1769      C1774   1.415       .  A
C1770      C1771   1.405       .  A
C1770     Br1786   1.919       .  S
C1771      C1772   1.403       .  A
C1771      H1775   1.084       .  S
C1772      C1776   1.481       .  S
C1772      C1773   1.401       .  A
C1773      C1774   1.396       .  A
C1773     Br1785   1.920       .  S
C1774      H1777   1.082       .  S
C1776      C1778   1.403       .  A
C1776      C1782   1.409       .  A
C1778      C1779   1.398       .  A
C1778      H1783   1.084       .  S
C1779      C1780   1.408       .  A
C1779     Br1787   1.918       .  S
C1780      C1781   1.405       .  A
C1781      C1782   1.400       .  A
C1781      H1784   1.084       .  S
C1782     Br1788   1.918       .  S
C1789      C1790   1.409       .  A
C1789      C1794   1.401       .  A
C1790      C1791   1.399       .  A
C1790     Br1806   1.921       .  S
C1791      C1792   1.402       .  A
C1791      H1795   1.083       .  S
C1792      C1796   1.482       .  S
C1792      C1793   1.412       .  A
C1793      C1794   1.401       .  A
C1793     Br1805   1.919       .  S
C1794      H1797   1.084       .  S
C1796      C1798   1.398       .  A
C1796      C1802   1.414       .  A
C1798      C1799   1.396       .  A
C1798      H1803   1.084       .  S
C1799      C1800   1.411       .  A
C1799     Br1807   1.919       .  S
C1800      C1801   1.403       .  A
C1801      C1802   1.405       .  A
C1801      H1804   1.083       .  S
C1802     Br1808   1.918       .  S
C1809      C1810   1.417       .  A
C1809      C1814   1.411       .  A
C1810      C1811   1.403       .  A
C1810     Br1826   1.920       .  S
C1811      C1812   1.403       .  A
C1811      H1815   1.084       .  S
C1812      C1816   1.478       .  S
C1812      C1813   1.402       .  A
C1813      C1814   1.396       .  A
C1813     Br1825   1.918       .  S
C1814      H1817   1.083       .  S
C1816      C1818   1.403       .  A
C1816      C1822   1.407       .  A
C1818      C1819   1.403       .  A
C1818      H1823   1.083       .  S
C1819      C1820   1.409       .  A
C1819     Br1827   1.918       .  S
C1820      C1821   1.402       .  A
C1821      C1822   1.397       .  A
C1821      H1824   1.084       .  S
C1822     Br1828   1.919       .  S
C1829      C1830   1.413       .  A
C1829      C1834   1.406       .  A
C1830      C1831   1.396       .  A
C1830     Br1846   1.919       .  S
C1831      C1832   1.399       .  A
C1831      H1835   1.084       .  S
C1832      C1836   1.480       .  S
C1832      C1833   1.410       .  A
C1833      C1834   1.403       .  A
C1833     Br1845   1.918       .  S
C1834      H1837   1.084       .  S
C1836      C1838   1.405       .  A
C1836      C1842   1.403       .  A
C1838      C1839   1.406       .  A
C1838      H1843   1.084       .  S
C1839      C1840   1.417       .  A
C1839     Br1847   1.919       .  S
C1840      C1841   1.411       .  A
C1841      C1842   1.394       .  A
C1841      H1844   1.083       .  S
C1842     Br1848   1.919       .  S
C1849      C1850   1.411       .  A
C1849      C1854   1.405       .  A
C1850      C1851   1.398       .  A
C1850     Br1866   1.918       .  S
C1851      C1852   1.401       .  A
C1851      H1855   1.084       .  S
C1852      C1856   1.473       .  S
C1852      C1853   1.406       .  A
C1853      C1854   1.398       .  A
C1853     Br1865   1.919       .  S
C1854      H1857   1.084       .  S
C1856      C1858   1.403       .  A
C1856      C1862   1.401       .  A
C1858      C1859   1.401       .  A
C1858      H1863   1.084       .  S
C1859      C1860   1.417       .  A
C1859     Br1867   1.923       .  S
C1860      C1861   1.411       .  A
C1861      C1862   1.391       .  A
C1861      H1864   1.083       .  S
C1862     Br1868   1.919       .  S
C1869      C1870   1.409       .  A
C1869      C1874   1.403       .  A
C1870      C1871   1.398       .  A
C1870     Br1886   1.916       .  S
C1871      C1872   1.400       .  A
C1871      H1875   1.083       .  S
C1872      C1876   1.481       .  S
C1872      C1873   1.411       .  A
C1873      C1874   1.402       .  A
C1873     Br1885   1.920       .  S
C1874      H1877   1.084       .  S
C1876      C1878   1.399       .  A
C1876      C1882   1.413       .  A
C1878      C1879   1.396       .  A
C1878      H1883   1.084       .  S
C1879      C1880   1.411       .  A
C1879     Br1887   1.920       .  S
C1880      C1881   1.403       .  A
C1881      C1882   1.404       .  A
C1881      H1884   1.083       .  S
C1882     Br1888   1.919       .  S
C1889      C1890   1.411       .  A
C1889      C1894   1.403       .  A
C1890      C1891   1.400       .  A
C1890     Br1906   1.919       .  S
C1891      C1892   1.401       .  A
C1891      H1895   1.083       .  S
C1892      C1896   1.485   1_556  S
C1892      C1893   1.413       .  A
C1893      C1894   1.404       .  A
C1893     Br1905   1.919       .  S
C1894      H1897   1.084       .  S
C1896      C1898   1.407       .  A
C1896      C1902   1.404   1_554  A
C1898      C1899   1.406       .  A
C1898      H1903   1.083       .  S
C1899      C1900   1.411       .  A
C1899     Br1907   1.919       .  S
C1900      C1901   1.409       .  A
C1901      C1902   1.398   1_554  A
C1901      H1904   1.084   1_554  S
C1902     Br1908   1.918       .  S
C1909      C1910   1.415       .  A
C1909      C1914   1.402       .  A
C1910      C1911   1.399       .  A
C1910     Br1926   1.923       .  S
C1911      C1912   1.402       .  A
C1911      H1915   1.083       .  S
C1912      C1916   1.491       .  S
C1912      C1913   1.414       .  A
C1913      C1914   1.403       .  A
C1913     Br1925   1.918       .  S
C1914      H1917   1.083       .  S
C1916      C1918   1.406       .  A
C1916      C1922   1.409       .  A
C1918      C1919   1.405       .  A
C1918      H1923   1.083       .  S
C1919      C1920   1.414       .  A
C1919     Br1927   1.920       .  S
C1920      C1921   1.408       .  A
C1921      C1922   1.400       .  A
C1921      H1924   1.084       .  S
C1922     Br1928   1.920       .  S
C1929      C1930   1.410       .  A
C1929      C1934   1.399       .  A
C1930      C1931   1.398       .  A
C1930     Br1946   1.918       .  S
C1931      C1932   1.400       .  A
C1931      H1935   1.084       .  S
C1932      C1936   1.475   1_545  S
C1932      C1933   1.410       .  A
C1933      C1934   1.398       .  A
C1933     Br1945   1.919   1_545  S
C1934      H1937   1.083       .  S
C1936      C1938   1.398       .  A
C1936      C1942   1.412       .  A
C1938      C1939   1.395       .  A
C1938      H1943   1.084       .  S
C1939      C1940   1.411       .  A
C1939     Br1947   1.920       .  S
C1940      C1941   1.399       .  A
C1941      C1942   1.399       .  A
C1941      H1944   1.084       .  S
C1942     Br1948   1.919   1_565  S
C1949      C1950   1.410       .  A
C1949      C1954   1.401       .  A
C1950      C1951   1.398       .  A
C1950     Br1966   1.920       .  S
C1951      C1952   1.401       .  A
C1951      H1955   1.083       .  S
C1952      C1956   1.478       .  S
C1952      C1953   1.410       .  A
C1953      C1954   1.400       .  A
C1953     Br1965   1.920       .  S
C1954      H1957   1.083       .  S
C1956      C1958   1.405       .  A
C1956      C1962   1.407       .  A
C1958      C1959   1.401       .  A
C1958      H1963   1.083       .  S
C1959      C1960   1.406       .  A
C1959     Br1967   1.917       .  S
C1960      C1961   1.404       .  A
C1961      C1962   1.397       .  A
C1961      H1964   1.084       .  S
C1962     Br1968   1.920       .  S
C1969      C1970   1.410       .  A
C1969      C1974   1.405       .  A
C1970      C1971   1.396       .  A
C1970     Br1986   1.920       .  S
C1971      C1972   1.401       .  A
C1971      H1975   1.084       .  S
C1972      C1976   1.469       .  S
C1972      C1973   1.405       .  A
C1973      C1974   1.393       .  A
C1973     Br1985   1.919       .  S
C1974      H1977   1.084       .  S
C1976      C1978   1.398       .  A
C1976      C1982   1.405       .  A
C1978      C1979   1.395       .  A
C1978      H1983   1.084       .  S
C1979      C1980   1.413       .  A
C1979     Br1987   1.918       .  S
C1980      C1981   1.408       .  A
C1981      C1982   1.398       .  A
C1981      H1984   1.083       .  S
C1982     Br1988   1.920       .  S
C1989      C1990   1.412       .  A
C1989      C1994   1.408       .  A
C1990      C1991   1.399       .  A
C1990     Br2006   1.919       .  S
C1991      C1992   1.401       .  A
C1991      H1995   1.084       .  S
C1992      C1996   1.475       .  S
C1992      C1993   1.405       .  A
C1993      C1994   1.398       .  A
C1993     Br2005   1.920       .  S
C1994      H1997   1.083       .  S
C1996      C1998   1.400       .  A
C1996      C2002   1.406       .  A
C1998      C1999   1.398       .  A
C1998      H2003   1.084       .  S
C1999      C2000   1.415       .  A
C1999     Br2007   1.920       .  S
C2000      C2001   1.407       .  A
C2001      C2002   1.396       .  A
C2001      H2004   1.083       .  S
C2002     Br2008   1.918       .  S
C2009      C2010   1.412       .  A
C2009      C2014   1.403       .  A
C2010      C2011   1.389       .  A
C2010     Br2026   1.923       .  S
C2011      C2012   1.398       .  A
C2011      H2015   1.084       .  S
C2012      C2016   1.475       .  S
C2012      C2013   1.410       .  A
C2013      C2014   1.402       .  A
C2013     Br2025   1.918       .  S
C2014      H2017   1.083       .  S
C2016      C2018   1.404       .  A
C2016      C2022   1.402       .  A
C2018      C2019   1.404       .  A
C2018      H2023   1.084       .  S
C2019      C2020   1.417       .  A
C2019     Br2027   1.920       .  S
C2020      C2021   1.411       .  A
C2021      C2022   1.389       .  A
C2021      H2024   1.083       .  S
C2022     Br2028   1.924       .  S
C2029      C2030   1.402       .  A
C2029      C2034   1.403       .  A
C2030      C2031   1.397       .  A
C2030     Br2046   1.918       .  S
C2031      C2032   1.406       .  A
C2031      H2035   1.084       .  S
C2032      C2036   1.474   1_545  S
C2032      C2033   1.407       .  A
C2033      C2034   1.396       .  A
C2033     Br2045   1.920       .  S
C2034      H2037   1.084       .  S
C2036      C2038   1.405       .  A
C2036      C2042   1.405       .  A
C2038      C2039   1.399       .  A
C2038      H2043   1.084   1_565  S
C2039      C2040   1.407       .  A
C2039     Br2047   1.916       .  S
C2040      C2041   1.406       .  A
C2041      C2042   1.394       .  A
C2041      H2044   1.084       .  S
C2042     Br2048   1.921       .  S
C2049      C2050   1.410       .  A
C2049      C2054   1.402       .  A
C2050      C2051   1.400       .  A
C2050     Br2066   1.921       .  S
C2051      C2052   1.403       .  A
C2051      H2055   1.083       .  S
C2052      C2056   1.485       .  S
C2052      C2053   1.410       .  A
C2053      C2054   1.404       .  A
C2053     Br2065   1.918       .  S
C2054      H2057   1.083       .  S
C2056      C2058   1.400       .  A
C2056      C2062   1.410   1_556  A
C2058      C2059   1.401       .  A
C2058      H2063   1.084       .  S
C2059      C2060   1.418   1_556  A
C2059     Br2067   1.922       .  S
C2060      C2061   1.404       .  A
C2061      C2062   1.402       .  A
C2061      H2064   1.083       .  S
C2062     Br2068   1.918       .  S
C2069      C2070   1.420       .  A
C2069      C2074   1.407       .  A
C2070      C2071   1.401       .  A
C2070     Br2086   1.921       .  S
C2071      C2072   1.401       .  A
C2071      H2075   1.084       .  S
C2072      C2076   1.488       .  S
C2072      C2073   1.410       .  A
C2073      C2074   1.404       .  A
C2073     Br2085   1.918       .  S
C2074      H2077   1.083       .  S
C2076      C2078   1.402       .  A
C2076      C2082   1.409       .  A
C2078      C2079   1.402       .  A
C2078      H2083   1.084       .  S
C2079      C2080   1.416       .  A
C2079     Br2087   1.922       .  S
C2080      C2081   1.408       .  A
C2081      C2082   1.404       .  A
C2081      H2084   1.083       .  S
C2082     Br2088   1.918       .  S
C2089      C2090   1.420       .  A
C2089      C2094   1.414       .  A
C2090      C2091   1.406       .  A
C2090     Br2106   1.921       .  S
C2091      C2092   1.403       .  A
C2091      H2095   1.084       .  S
C2092      C2096   1.481       .  S
C2092      C2093   1.401       .  A
C2093      C2094   1.396       .  A
C2093     Br2105   1.919       .  S
C2094      H2097   1.082       .  S
C2096      C2098   1.404       .  A
C2096      C2102   1.405       .  A
C2098      C2099   1.404       .  A
C2098      H2103   1.083       .  S
C2099      C2100   1.413       .  A
C2099     Br2107   1.920       .  S
C2100      C2101   1.406       .  A
C2101      C2102   1.398       .  A
C2101      H2104   1.082       .  S
C2102     Br2108   1.919       .  S
C2109      C2110   1.424       .  A
C2109      C2114   1.407       .  A
C2110      C2111   1.398       .  A
C2110     Br2126   1.923       .  S
C2111      C2112   1.396       .  A
C2111      H2115   1.084       .  S
C2112      C2116   1.476       .  S
C2112      C2113   1.406       .  A
C2113      C2114   1.399       .  A
C2113     Br2125   1.917       .  S
C2114      H2117   1.083       .  S
C2116      C2118   1.401       .  A
C2116      C2122   1.407       .  A
C2118      C2119   1.399       .  A
C2118      H2123   1.084       .  S
C2119      C2120   1.412       .  A
C2119     Br2127   1.922       .  S
C2120      C2121   1.405       .  A
C2121      C2122   1.399       .  A
C2121      H2124   1.084       .  S
C2122     Br2128   1.919       .  S
C2129      C2130   1.410       .  A
C2129      C2134   1.401       .  A
C2130      C2131   1.398       .  A
C2130     Br2146   1.919       .  S
C2131      C2132   1.400       .  A
C2131      H2135   1.083       .  S
C2132      C2136   1.485   1_655  S
C2132      C2133   1.414       .  A
C2133      C2134   1.402       .  A
C2133     Br2145   1.921   1_655  S
C2134      H2137   1.084       .  S
C2136      C2138   1.402       .  A
C2136      C2142   1.412       .  A
C2138      C2139   1.400       .  A
C2138      H2143   1.083       .  S
C2139      C2140   1.408       .  A
C2139     Br2147   1.918       .  S
C2140      C2141   1.402       .  A
C2141      C2142   1.402       .  A
C2141      H2144   1.083       .  S
C2142     Br2148   1.921   1_455  S
C2149      C2150   1.414       .  A
C2149      C2154   1.404       .  A
C2150      C2151   1.397       .  A
C2150     Br2166   1.921       .  S
C2151      C2152   1.399       .  A
C2151      H2155   1.084       .  S
C2152      C2156   1.472       .  S
C2152      C2153   1.406       .  A
C2153      C2154   1.398       .  A
C2153     Br2165   1.918       .  S
C2154      H2157   1.084       .  S
C2156      C2158   1.399       .  A
C2156      C2162   1.407       .  A
C2158      C2159   1.398       .  A
C2158      H2163   1.084       .  S
C2159      C2160   1.413       .  A
C2159     Br2167   1.921       .  S
C2160      C2161   1.402       .  A
C2161      C2162   1.398       .  A
C2161      H2164   1.080       .  S
C2162     Br2168   1.918       .  S
C2169      C2170   1.417       .  A
C2169      C2174   1.407       .  A
C2170      C2171   1.398       .  A
C2170     Br2186   1.919       .  S
C2171      C2172   1.398       .  A
C2171      H2175   1.084       .  S
C2172      C2176   1.478       .  S
C2172      C2173   1.407       .  A
C2173      C2174   1.401       .  A
C2173     Br2185   1.917       .  S
C2174      H2177   1.083       .  S
C2176      C2178   1.401       .  A
C2176      C2182   1.408       .  A
C2178      C2179   1.400       .  A
C2178      H2183   1.083       .  S
C2179      C2180   1.410       .  A
C2179     Br2187   1.920       .  S
C2180      C2181   1.401       .  A
C2181      C2182   1.400       .  A
C2181      H2184   1.081       .  S
C2182     Br2188   1.918       .  S
C2189      C2190   1.412       .  A
C2189      C2194   1.406       .  A
C2190      C2191   1.400       .  A
C2190     Br2206   1.916       .  S
C2191      C2192   1.400       .  A
C2191      H2195   1.084   1_554  S
C2192      C2196   1.485       .  S
C2192      C2193   1.410       .  A
C2193      C2194   1.407       .  A
C2193     Br2205   1.917       .  S
C2194      H2197   1.083       .  S
C2196      C2198   1.402       .  A
C2196      C2202   1.407       .  A
C2198      C2199   1.403   1_554  A
C2198      H2203   1.084       .  S
C2199      C2200   1.415       .  A
C2199     Br2207   1.922       .  S
C2200      C2201   1.407       .  A
C2201      C2202   1.404   1_556  A
C2201      H2204   1.083       .  S
C2202     Br2208   1.917       .  S
C2209      C2210   1.408       .  A
C2209      C2214   1.404       .  A
C2210      C2211   1.400       .  A
C2210     Br2226   1.918       .  S
C2211      C2212   1.405       .  A
C2211      H2215   1.083       .  S
C2212      C2216   1.483       .  S
C2212      C2213   1.409       .  A
C2213      C2214   1.400       .  A
C2213     Br2225   1.919       .  S
C2214      H2217   1.083       .  S
C2216      C2218   1.406       .  A
C2216      C2222   1.402       .  A
C2218      C2219   1.406       .  A
C2218      H2223   1.083       .  S
C2219      C2220   1.416       .  A
C2219     Br2227   1.918       .  S
C2220      C2221   1.414       .  A
C2221      C2222   1.393       .  A
C2221      H2224   1.082       .  S
C2222     Br2228   1.921       .  S
C2229      C2230   1.412       .  A
C2229      C2234   1.403       .  A
C2230      C2231   1.398       .  A
C2230     Br2246   1.923       .  S
C2231      C2232   1.402       .  A
C2231      H2235   1.084       .  S
C2232      C2236   1.475       .  S
C2232      C2233   1.408       .  A
C2233      C2234   1.394       .  A
C2233     Br2245   1.919       .  S
C2234      H2237   1.084       .  S
C2236      C2238   1.396       .  A
C2236      C2242   1.408       .  A
C2238      C2239   1.396       .  A
C2238      H2243   1.084       .  S
C2239      C2240   1.421       .  A
C2239     Br2247   1.924       .  S
C2240      C2241   1.407       .  A
C2241      C2242   1.400       .  A
C2241      H2244   1.083       .  S
C2242     Br2248   1.921       .  S
C2249      C2250   1.411       .  A
C2249      C2254   1.400       .  A
C2250      C2251   1.400       .  A
C2250     Br2266   1.920       .  S
C2251      C2252   1.400       .  A
C2251      H2255   1.083       .  S
C2252      C2256   1.479   1_455  S
C2252      C2253   1.412       .  A
C2253      C2254   1.400       .  A
C2253     Br2265   1.920   1_455  S
C2254      H2257   1.084       .  S
C2256      C2258   1.399       .  A
C2256      C2262   1.410       .  A
C2258      C2259   1.398       .  A
C2258      H2263   1.083       .  S
C2259      C2260   1.413       .  A
C2259     Br2267   1.920       .  S
C2260      C2261   1.401       .  A
C2261      C2262   1.402       .  A
C2261      H2264   1.083       .  S
C2262     Br2268   1.918   1_655  S
