geometry optimzed in LAMMPS
_audit_creation_date              2020-11-30 
_audit_creation_method            'lammps2cif' 
_symmetry_space_group_name_H-M    'P1' 
_symmetry_Int_Tables_number       1 
_symmetry_cell_setting            triclinic 
loop_ 
_symmetry_equiv_pos_as_xyz 
  x,y,z 
_cell_length_a                    43.62166878 
_cell_length_b                    43.616620030558636 
_cell_length_c                    43.68912154903979 
_cell_angle_alpha                 89.47056278824356 
_cell_angle_beta                  90.5694603524804 
_cell_angle_gamma                 89.89762817727875 
loop_ 
_atom_site_label 
_atom_site_type_symbol 
_atom_site_fract_x 
_atom_site_fract_y 
_atom_site_fract_z 
_atom_site_charge 
O1          O  0.07797500  0.12472161  0.41090380    -0.74900
O2          O  0.16569511  0.12412600  0.40363296    -0.75000
O3          O  0.12172480  0.16862519  0.40398275    -0.75000
O4          O  0.12251582  0.08071702  0.40980775    -0.75100
O5          O  0.11459815  0.07850320  0.35969518    -0.75000
O6          O  0.12024164  0.16572290  0.35333592    -0.75000
O7          O  0.16106773  0.11907158  0.35305112    -0.74900
O8          O  0.07345285  0.12491755  0.36004101    -0.75000
Ni9        Ni  0.12206479  0.12472194  0.40892082     1.25400
Ni10       Ni  0.11710028  0.12197562  0.35473881     1.25400
C11         C  0.06124729  0.12513901  0.38662412     0.87300
C12         C  0.17777733  0.12068359  0.37727940     0.87200
C13         C  0.12188447  0.18182446  0.37759878     0.87200
C14         C  0.11898740  0.06492971  0.38544212     0.87400
O15         O  0.06928688  0.87360484  0.35575703    -0.74900
O16         O  0.15721951  0.87366879  0.35622011    -0.75000
O17         O  0.11337021  0.82998032  0.35374634    -0.75000
O18         O  0.11273142  0.91721103  0.35810213    -0.75100
O19         O  0.11486699  0.91480208  0.40859883    -0.75000
O20         O  0.11293801  0.82697808  0.40477046    -0.75000
O21         O  0.15770795  0.86987636  0.40714643    -0.74900
O22         O  0.06962203  0.87176039  0.40674448    -0.75000
Ni23       Ni  0.11315065  0.87371755  0.35418615     1.25400
Ni24       Ni  0.11371893  0.87075796  0.40867452     1.25400
C25         C  0.05494319  0.87274107  0.38117380     0.87300
C26         C  0.17196545  0.87162860  0.38170998     0.87200
C27         C  0.11341694  0.81412979  0.37851365     0.87200
C28         C  0.11405927  0.93077852  0.38388986     0.87400
O29         O  0.87112280  0.16797042  0.35827965    -0.74900
O30         O  0.87154980  0.08006490  0.35768371    -0.75000
O31         O  0.82736869  0.12415146  0.35545234    -0.75000
O32         O  0.91529854  0.12431232  0.36064422    -0.75100
O33         O  0.91288134  0.12432939  0.41162194    -0.75000
O34         O  0.82499967  0.12272761  0.40637412    -0.75000
O35         O  0.87004636  0.07944000  0.40863026    -0.74900
O36         O  0.86792600  0.16751421  0.40917160    -0.75000
Ni37       Ni  0.87145938  0.12411412  0.35621489     1.25400
Ni38       Ni  0.86889109  0.12343407  0.41076193     1.25400
C39         C  0.86905268  0.18223918  0.38368106     0.87300
C40         C  0.87081692  0.06518999  0.38309683     0.87200
C41         C  0.81165654  0.12364965  0.38009975     0.87200
C42         C  0.92852629  0.12463186  0.38696894     0.87400
O43         O  0.90765279  0.87395305  0.35332366    -0.74900
O44         O  0.81942255  0.87555948  0.35315145    -0.75000
O45         O  0.86435524  0.91854274  0.35487632    -0.75000
O46         O  0.86335588  0.83057863  0.35104553    -0.75100
O47         O  0.86366176  0.82786212  0.40194999    -0.75000
O48         O  0.86489189  0.91585987  0.40578201    -0.75000
O49         O  0.82032297  0.87206579  0.40372510    -0.74900
O50         O  0.90778995  0.87113540  0.40431358    -0.75000
Ni51       Ni  0.86359631  0.87470090  0.35124720     1.25400
Ni52       Ni  0.86407887  0.87165774  0.40569981     1.25400
C53         C  0.92216960  0.87246158  0.37897705     0.87300
C54         C  0.80511612  0.87425712  0.37865310     0.87200
C55         C  0.86537780  0.93176672  0.38093311     0.87200
C56         C  0.86404051  0.81467170  0.37587004     0.87400
O57         O  0.10096844  0.41771027  0.37282021    -0.74900
O58         O  0.10007254  0.32986521  0.37268463    -0.75000
O59         O  0.10111311  0.37351606  0.41685738    -0.75000
O60         O  0.10028120  0.37438698  0.32859821    -0.75100
O61         O  0.15138000  0.37398946  0.32886226    -0.75000
O62         O  0.15218460  0.37267104  0.41669000    -0.75000
O63         O  0.15121467  0.32928123  0.37263003    -0.74900
O64         O  0.15210619  0.41716071  0.37304784    -0.75000
Ni65       Ni  0.09876806  0.37385281  0.37272117     1.25400
Ni66       Ni  0.15350573  0.37322188  0.37278287     1.25400
C67         C  0.12666118  0.43186530  0.37312198     0.87300
C68         C  0.12549919  0.31512614  0.37278970     0.87200
C69         C  0.12687954  0.37323194  0.43131704     0.87200
C70         C  0.12579330  0.37449440  0.31420446     0.87400
O71         O  0.16042372  0.37378017  0.66672751    -0.74900
O72         O  0.15830554  0.37422878  0.57851104    -0.75000
O73         O  0.15745672  0.41767610  0.62265241    -0.75000
O74         O  0.16165904  0.32988888  0.62245897    -0.75100
O75         O  0.11058471  0.32754608  0.62221218    -0.75000
O76         O  0.10652879  0.41537557  0.62489354    -0.75000
O77         O  0.10726281  0.37309311  0.57958519    -0.74900
O78         O  0.10952569  0.37004940  0.66726201    -0.75000
Ni79       Ni  0.16130292  0.37391509  0.62257407     1.25400
Ni80       Ni  0.10669290  0.37139080  0.62348764     1.25400
C81         C  0.13517492  0.37247242  0.68152977     0.87300
C82         C  0.13230379  0.37385142  0.56451606     0.87200
C83         C  0.13135518  0.43102699  0.62423179     0.87200
C84         C  0.13681744  0.31426725  0.62196500     0.87400
O85         O  0.09657470  0.66516358  0.37362143    -0.74900
O86         O  0.10041000  0.57782243  0.37500229    -0.75000
O87         O  0.09965637  0.62173195  0.41851934    -0.75000
O88         O  0.09806559  0.62148142  0.33041024    -0.75100
O89         O  0.14900667  0.62417724  0.33029826    -0.75000
O90         O  0.15075847  0.62299429  0.41802968    -0.75000
O91         O  0.15148440  0.57968698  0.37406973    -0.74900
O92         O  0.14723113  0.66777427  0.37475576    -0.75000
Ni93       Ni  0.09689020  0.62146423  0.37443344     1.25400
Ni94       Ni  0.15145459  0.62377818  0.37422290     1.25400
C95         C  0.12102289  0.68119129  0.37424212     0.87300
C96         C  0.12644576  0.56431796  0.37468265     0.87200
C97         C  0.12555850  0.62216473  0.43272183     0.87200
C98         C  0.12338825  0.62280447  0.31577890     0.87400
O99         O  0.10710936  0.66705910  0.62274784    -0.74900
O100        O  0.10488435  0.57913607  0.62559185    -0.75000
O101        O  0.10778487  0.62405936  0.66804901    -0.75000
O102        O  0.10391133  0.62219574  0.58039170    -0.75100
O103        O  0.15500781  0.62150751  0.57870466    -0.75000
O104        O  0.15877135  0.62178329  0.66661258    -0.75000
O105        O  0.15585281  0.57792232  0.62298085    -0.74900
O106        O  0.15821767  0.66565619  0.62181192    -0.75000
Ni107      Ni  0.10410245  0.62317285  0.62426967     1.25400
Ni108      Ni  0.15877440  0.62169051  0.62250718     1.25400
C109        C  0.13304069  0.68079356  0.62170712     0.87300
C110        C  0.13007999  0.56402498  0.62452601     0.87200
C111        C  0.13381970  0.62290064  0.68186506     0.87200
C112        C  0.12882136  0.62163699  0.56513953     0.87400
O113        O  0.62280607  0.09349534  0.42194199    -0.74900
O114        O  0.61854695  0.09592360  0.33393056    -0.75000
O115        O  0.66467269  0.09722133  0.37678097    -0.75000
O116        O  0.57710906  0.09116937  0.37931058    -0.75100
O117        O  0.57352227  0.14216561  0.37916259    -0.75000
O118        O  0.66178663  0.14806397  0.37763428    -0.75000
O119        O  0.61649904  0.14654532  0.33471461    -0.74900
O120        O  0.61887922  0.14446899  0.42251355    -0.75000
Ni121      Ni  0.62093976  0.09268151  0.37793946     1.25400
Ni122      Ni  0.61752250  0.14713199  0.37859299     1.25400
C123        C  0.62153794  0.11874652  0.43669152     0.87300
C124        C  0.61675129  0.12164153  0.31951207     0.87200
C125        C  0.67789400  0.12341662  0.37688119     0.87200
C126        C  0.56085737  0.11559140  0.37931323     0.87400
O127        O  0.63590936  0.09340768  0.67184584    -0.74900
O128        O  0.63155819  0.09282397  0.58390902    -0.75000
O129        O  0.67770636  0.09195927  0.62601425    -0.75000
O130        O  0.58987436  0.09420875  0.62963688    -0.75100
O131        O  0.59073160  0.14524657  0.62805747    -0.75000
O132        O  0.67865651  0.14301079  0.62590563    -0.75000
O133        O  0.63287405  0.14395603  0.58311428    -0.74900
O134        O  0.63649919  0.14456697  0.67089037    -0.75000
Ni135      Ni  0.63375150  0.09127898  0.62791524     1.25400
Ni136      Ni  0.63477959  0.14599970  0.62699214     1.25400
C137        C  0.63661566  0.11913718  0.68578208     0.87300
C138        C  0.63128176  0.11833317  0.56908808     0.87200
C139        C  0.69270511  0.11717766  0.62535084     0.87200
C140        C  0.57573782  0.12000506  0.62889103     0.87400
O141        O  0.32642988  0.13947420  0.37657586    -0.74900
O142        O  0.41441417  0.13665145  0.37968290    -0.75000
O143        O  0.37247036  0.14118291  0.33423529    -0.75000
O144        O  0.36937370  0.13459887  0.42185561    -0.75100
O145        O  0.36628456  0.08394535  0.41867096    -0.75000
O146        O  0.37127183  0.09042808  0.33107594    -0.75000
O147        O  0.41299836  0.08560500  0.37752645    -0.74900
O148        O  0.32490972  0.08879407  0.37202708    -0.75000
Ni149      Ni  0.37061863  0.13976543  0.37820153     1.25400
Ni150      Ni  0.36881230  0.08538218  0.37471737     1.25400
C151        C  0.31100107  0.11460951  0.37395372     0.87300
C152        C  0.42817375  0.11073282  0.37891812     0.87200
C153        C  0.37320406  0.11681963  0.31807753     0.87200
C154        C  0.36717010  0.10824764  0.43490096     0.87400
O155        O  0.33964545  0.09417246  0.62962825    -0.74900
O156        O  0.42790827  0.09513727  0.62817663    -0.75000
O157        O  0.38514547  0.09972781  0.67263936    -0.75000
O158        O  0.38160343  0.08946520  0.58537696    -0.75100
O159        O  0.38209547  0.14002903  0.57920210    -0.75000
O160        O  0.38498418  0.15033692  0.66669196    -0.75000
O161        O  0.42738136  0.14590296  0.62223992    -0.74900
O162        O  0.33923391  0.14484997  0.62308912    -0.75000
Ni163      Ni  0.38371785  0.09285583  0.62922150     1.25400
Ni164      Ni  0.38337804  0.14707559  0.62262868     1.25400
C165        C  0.32484858  0.11931544  0.62553616     0.87300
C166        C  0.44222526  0.12070159  0.62540369     0.87200
C167        C  0.38624597  0.12660824  0.68425353     0.87200
C168        C  0.37997093  0.11309376  0.56779792     0.87400
O169        O  0.84367356  0.66737631  0.37472449    -0.74900
O170        O  0.84180513  0.57992647  0.36966115    -0.75000
O171        O  0.84516617  0.62086408  0.41602256    -0.75000
O172        O  0.84068184  0.62681620  0.32839923    -0.75100
O173        O  0.89172487  0.62540454  0.32631649    -0.75000
O174        O  0.89622393  0.62051610  0.41404629    -0.75000
O175        O  0.89285463  0.57873986  0.36818360    -0.74900
O176        O  0.89466510  0.66686972  0.37196592    -0.75000
Ni177      Ni  0.84105942  0.62372722  0.37229608     1.25400
Ni178      Ni  0.89571819  0.62278244  0.37007457     1.25400
C179        C  0.86927314  0.68161601  0.37363448     0.87300
C180        C  0.86694305  0.56483868  0.36829443     0.87200
C181        C  0.87140558  0.62025033  0.42949498     0.87200
C182        C  0.86550409  0.62731493  0.31294657     0.87400
O183        O  0.84802142  0.66416416  0.61877172    -0.74900
O184        O  0.85118252  0.57627644  0.62178680    -0.75000
O185        O  0.84947101  0.62123290  0.66426576    -0.75000
O186        O  0.84941900  0.61901190  0.57660756    -0.75100
O187        O  0.90048097  0.62131021  0.57672729    -0.75000
O188        O  0.90058796  0.62251693  0.66474549    -0.75000
O189        O  0.90225538  0.57802271  0.62151190    -0.74900
O190        O  0.89907036  0.66588885  0.61978378    -0.75000
Ni191      Ni  0.84772890  0.62012258  0.62038655     1.25400
Ni192      Ni  0.90243187  0.62200080  0.62074856     1.25400
C193        C  0.87304165  0.67954668  0.61873106     0.87300
C194        C  0.87724674  0.56267703  0.62162555     0.87200
C195        C  0.87500217  0.62204263  0.67896174     0.87200
C196        C  0.87483251  0.61990389  0.56220633     0.87400
O197        O  0.84180635  0.32954441  0.37479136    -0.74900
O198        O  0.84123612  0.41702494  0.36844704    -0.75000
O199        O  0.83902803  0.37049667  0.32746899    -0.75000
O200        O  0.84487596  0.37578054  0.41532322    -0.75100
O201        O  0.89581025  0.37474899  0.41240002    -0.75000
O202        O  0.89004907  0.37121424  0.32496831    -0.75000
O203        O  0.89227073  0.41738091  0.36654544    -0.74900
O204        O  0.89272087  0.32913358  0.37115986    -0.75000
Ni205      Ni  0.83993340  0.37325788  0.37154461     1.25400
Ni206      Ni  0.89452553  0.37319499  0.36859812     1.25400
C207        C  0.86721522  0.31487489  0.37429786     0.87300
C208        C  0.86654382  0.43172695  0.36704232     0.87200
C209        C  0.86374898  0.36992393  0.31177688     0.87200
C210        C  0.87138323  0.37533662  0.42836642     0.87400
O211        O  0.90395101  0.37100754  0.66412668    -0.74900
O212        O  0.90426407  0.37138897  0.57598141    -0.75000
O213        O  0.90491115  0.41508770  0.61982538    -0.75000
O214        O  0.90354102  0.32726529  0.62012178    -0.75100
O215        O  0.85248662  0.32807901  0.61838547    -0.75000
O216        O  0.85381946  0.41589021  0.62016721    -0.75000
O217        O  0.85320266  0.37320201  0.57556838    -0.74900
O218        O  0.85280996  0.37108687  0.66326467    -0.75000
Ni219      Ni  0.90600534  0.37114016  0.62007631     1.25400
Ni220      Ni  0.85128572  0.37206281  0.61936219     1.25400
C221        C  0.87825089  0.37122606  0.67815126     0.87300
C222        C  0.87867767  0.37241399  0.56126628     0.87200
C223        C  0.87957434  0.42996149  0.62001804     0.87200
C224        C  0.87783646  0.31317139  0.61866739     0.87400
O225        O  0.31936144  0.89921014  0.37822787    -0.74900
O226        O  0.40689267  0.90470924  0.37778511    -0.75000
O227        O  0.36263990  0.89790064  0.33394068    -0.75000
O228        O  0.36357202  0.90576184  0.42130437    -0.75100
O229        O  0.36595859  0.85490027  0.42595407    -0.75000
O230        O  0.36674740  0.84707571  0.33877769    -0.75000
O231        O  0.41015417  0.85395134  0.38316813    -0.74900
O232        O  0.32203225  0.84861288  0.38136525    -0.75000
Ni233      Ni  0.36296869  0.90366036  0.37753493     1.25400
Ni234      Ni  0.36628320  0.84929661  0.38249089     1.25400
C235        C  0.30590984  0.87320942  0.37961449     0.87300
C236        C  0.42300578  0.88033806  0.38122939     0.87200
C237        C  0.36481934  0.87123270  0.32205197     0.87200
C238        C  0.36529144  0.88155460  0.43802549     0.87400
O239        O  0.33347112  0.85421910  0.62473721    -0.74900
O240        O  0.42046074  0.86507736  0.63124030    -0.75000
O241        O  0.37485663  0.85893205  0.67229208    -0.75000
O242        O  0.37909194  0.86063778  0.58452013    -0.75100
O243        O  0.37323997  0.91141325  0.58470886    -0.75000
O244        O  0.36826359  0.90960711  0.67238825    -0.75000
O245        O  0.41458839  0.91564789  0.63248595    -0.74900
O246        O  0.32719242  0.90480814  0.62488828    -0.75000
Ni247      Ni  0.37722209  0.85794698  0.62826336     1.25400
Ni248      Ni  0.37061636  0.91218173  0.62860715     1.25400
C249        C  0.31595053  0.87773361  0.62247925     0.87300
C250        C  0.43199568  0.89192787  0.63391357     0.87200
C251        C  0.37159428  0.88413141  0.68685592     0.87200
C252        C  0.37571826  0.88617443  0.57014955     0.87400
O253        O  0.62604584  0.85917175  0.68048780    -0.74900
O254        O  0.61956242  0.86143139  0.59324357    -0.75000
O255        O  0.66673543  0.85801318  0.63427499    -0.75000
O256        O  0.57846122  0.86414916  0.63949942    -0.75100
O257        O  0.58229666  0.91478604  0.64055970    -0.75000
O258        O  0.66968426  0.90903498  0.63523668    -0.75000
O259        O  0.62313294  0.91234291  0.59338110    -0.74900
O260        O  0.62864970  0.90986036  0.68194858    -0.75000
Ni261      Ni  0.62251886  0.85891978  0.63687425     1.25400
Ni262      Ni  0.62604772  0.91331866  0.63778335     1.25400
C263        C  0.62840183  0.88379229  0.69592168     0.87300
C264        C  0.62084306  0.88696232  0.57872027     0.87200
C265        C  0.68264581  0.88276847  0.63382558     0.87200
C266        C  0.56567940  0.89069753  0.64101180     0.87400
O267        O  0.61556229  0.85833664  0.43102594    -0.74900
O268        O  0.61127567  0.85846846  0.34291517    -0.75000
O269        O  0.65704322  0.85689702  0.38477317    -0.75000
O270        O  0.56948218  0.85938673  0.38860863    -0.75100
O271        O  0.57067843  0.91049659  0.38852823    -0.75000
O272        O  0.65843797  0.90805490  0.38382614    -0.75000
O273        O  0.61193594  0.90954288  0.34250874    -0.74900
O274        O  0.61736095  0.90938052  0.43024650    -0.75000
Ni275      Ni  0.61327265  0.85645199  0.38691816     1.25400
Ni276      Ni  0.61464313  0.91117548  0.38632937     1.25400
C277        C  0.61709816  0.88395539  0.44519546     0.87300
C278        C  0.61117863  0.88406398  0.32818455     0.87200
C279        C  0.67206009  0.88201551  0.38316282     0.87200
C280        C  0.55561607  0.88528439  0.38876678     0.87400
O281        O  0.12773495  0.83045466  0.63700367    -0.74900
O282        O  0.12282408  0.91756430  0.62901325    -0.75000
O283        O  0.08081238  0.87167030  0.63249943    -0.75000
O284        O  0.16892730  0.87588255  0.63330263    -0.75100
O285        O  0.16931416  0.86954349  0.58273993    -0.75000
O286        O  0.08098217  0.87048746  0.58150765    -0.75000
O287        O  0.12628805  0.91416165  0.57848969    -0.74900
O288        O  0.12514579  0.82602313  0.58648428    -0.75000
Ni289      Ni  0.12492755  0.87409082  0.63469753     1.25400
Ni290      Ni  0.12526722  0.86992332  0.58042730     1.25400
C291        C  0.12774638  0.81366623  0.61319727     0.87300
C292        C  0.12559233  0.93048870  0.60276042     0.87200
C293        C  0.06634054  0.87062652  0.60683376     0.87200
C294        C  0.18363154  0.87265729  0.60826483     0.87400
O295        O  0.08805802  0.12432666  0.63309616    -0.74900
O296        O  0.17561967  0.11627201  0.63808495    -0.75000
O297        O  0.13593741  0.16376870  0.63979806    -0.75000
O298        O  0.12818216  0.07673311  0.63106675    -0.75100
O299        O  0.13422474  0.08137628  0.58089075    -0.75000
O300        O  0.13583432  0.16911887  0.58925981    -0.75000
O301        O  0.17886852  0.12386867  0.58772119    -0.74900
O302        O  0.09057448  0.12661417  0.58220097    -0.75000
Ni303      Ni  0.13178176  0.12007276  0.63726343     1.25400
Ni304      Ni  0.13488789  0.12543810  0.58316005     1.25400
C305        C  0.07480152  0.12632804  0.60685334     0.87300
C306        C  0.19174413  0.11945075  0.61391579     0.87200
C307        C  0.13710138  0.18103804  0.61599355     0.87200
C308        C  0.13126520  0.06438825  0.60476758     0.87400
O309        O  0.84214496  0.11995495  0.64386273    -0.74900
O310        O  0.92984185  0.12504235  0.63723751    -0.75000
O311        O  0.88329128  0.16621890  0.63983363    -0.75000
O312        O  0.88842274  0.07825618  0.64138740    -0.75100
O313        O  0.88490548  0.07784438  0.59045937    -0.75000
O314        O  0.87842667  0.16559794  0.58900266    -0.75000
O315        O  0.92545166  0.12495238  0.58632390    -0.74900
O316        O  0.83824129  0.11852893  0.59302077    -0.75000
Ni317      Ni  0.88615073  0.12235305  0.64240665     1.25400
Ni318      Ni  0.88166469  0.12170001  0.58791861     1.25400
C319        C  0.82571676  0.11864827  0.61941222     0.87300
C320        C  0.94202594  0.12598239  0.61065288     0.87200
C321        C  0.87983127  0.18037436  0.61419319     0.87200
C322        C  0.88679488  0.06351453  0.61616181     0.87400
O323        O  0.91618783  0.87005849  0.58751082    -0.74900
O324        O  0.82839907  0.87430027  0.59568532    -0.75000
O325        O  0.87472329  0.91630007  0.59213982    -0.75000
O326        O  0.86988977  0.82824450  0.59093131    -0.75100
O327        O  0.87448643  0.82695352  0.64170117    -0.75000
O328        O  0.88046721  0.91500267  0.64282338    -0.75000
O329        O  0.83356962  0.87425779  0.64605896    -0.74900
O330        O  0.92121527  0.86798988  0.63832334    -0.75000
Ni331      Ni  0.87210007  0.87227537  0.58977734     1.25400
Ni332      Ni  0.87757668  0.87095298  0.64400838     1.25400
C333        C  0.93316339  0.86846314  0.61162731     0.87300
C334        C  0.81619318  0.87520772  0.62225855     0.87200
C335        C  0.87860891  0.93022469  0.61763195     0.87200
C336        C  0.87156025  0.81300174  0.61611653     0.87400
O337        O  0.40585192  0.16272747  0.12629529    -0.74900
O338        O  0.40222477  0.07447790  0.12752268    -0.75000
O339        O  0.40445205  0.11868062  0.08295312    -0.75000
O340        O  0.40418214  0.11850970  0.17082297    -0.75100
O341        O  0.35307990  0.11999929  0.17016462    -0.75000
O342        O  0.35346073  0.12145255  0.08206053    -0.75000
O343        O  0.35116912  0.07672333  0.12619963    -0.74900
O344        O  0.35481589  0.16452254  0.12630353    -0.75000
Ni345      Ni  0.40599144  0.11848788  0.12693333     1.25400
Ni346      Ni  0.35133318  0.12071406  0.12615446     1.25400
C347        C  0.38078160  0.17817915  0.12575100     0.87300
C348        C  0.37603853  0.06109942  0.12730235     0.87200
C349        C  0.37912752  0.12077152  0.06795094     0.87200
C350        C  0.37861444  0.11906822  0.18496481     0.87400
O351        O  0.35791422  0.13072479  0.91851744    -0.74900
O352        O  0.36283020  0.13168434  0.83055890    -0.75000
O353        O  0.35841891  0.08742949  0.87443854    -0.75000
O354        O  0.36212766  0.17494947  0.87448994    -0.75100
O355        O  0.41310379  0.17316002  0.87828302    -0.75000
O356        O  0.40945888  0.08523830  0.87741497    -0.75000
O357        O  0.41383528  0.12995480  0.83383028    -0.74900
O358        O  0.40886202  0.12828098  0.92174870    -0.75000
Ni359      Ni  0.35853692  0.13129783  0.87436908     1.25400
Ni360      Ni  0.41314349  0.12909101  0.87791206     1.25400
C361        C  0.38259645  0.12902426  0.93467765     0.87300
C362        C  0.38912758  0.13104463  0.81769646     0.87200
C363        C  0.38331518  0.07191399  0.87609920     0.87200
C364        C  0.38805896  0.18851074  0.87656964     0.87400
O365        O  0.40209728  0.83664106  0.87746224    -0.74900
O366        O  0.40355609  0.92440942  0.87992650    -0.75000
O367        O  0.40272652  0.87831364  0.92267235    -0.75000
O368        O  0.40205259  0.88200206  0.83452630    -0.75100
O369        O  0.35104441  0.88232641  0.83488281    -0.75000
O370        O  0.35220010  0.88168700  0.92234285    -0.75000
O371        O  0.35245777  0.92567294  0.87857472    -0.74900
O372        O  0.35100001  0.83755871  0.87892585    -0.75000
Ni373      Ni  0.40444581  0.88039986  0.87864069     1.25400
Ni374      Ni  0.34987911  0.88179872  0.87866462     1.25400
C375        C  0.37637513  0.82265908  0.87828188     0.87300
C376        C  0.37832692  0.93949294  0.87929742     0.87200
C377        C  0.37734123  0.87922517  0.93730651     0.87200
C378        C  0.37624381  0.88245313  0.82012341     0.87400
O379        O  0.34883787  0.87221579  0.08580446    -0.74900
O380        O  0.34536295  0.86637533  0.17302445    -0.75000
O381        O  0.34651460  0.91334680  0.13141895    -0.75000
O382        O  0.34736745  0.82529893  0.12720356    -0.75100
O383        O  0.39822696  0.82542505  0.13234609    -0.75000
O384        O  0.39756625  0.91345233  0.13137905    -0.75000
O385        O  0.39588431  0.86968733  0.17579981    -0.74900
O386        O  0.39930496  0.86914649  0.08804249    -0.75000
Ni387      Ni  0.34521204  0.86928104  0.12931648     1.25400
Ni388      Ni  0.39958253  0.86943512  0.13202435     1.25400
C389        C  0.37465181  0.87117250  0.07211071     0.87300
C390        C  0.36998183  0.86761694  0.18914820     0.87200
C391        C  0.37198650  0.92795862  0.13122930     0.87200
C392        C  0.37292766  0.81085131  0.12935818     0.87400
O393        O  0.87219597  0.34607607  0.16245547    -0.74900
O394        O  0.87871574  0.35405273  0.07498175    -0.75000
O395        O  0.91980022  0.35029671  0.12210021    -0.75000
O396        O  0.83177450  0.34991122  0.11547552    -0.75100
O397        O  0.83154044  0.40088803  0.11900201    -0.75000
O398        O  0.91916984  0.40125020  0.12605914    -0.75000
O399        O  0.87922972  0.40471117  0.07899525    -0.74900
O400        O  0.87217145  0.39680280  0.16626825    -0.75000
Ni401      Ni  0.87571472  0.34824827  0.11859080     1.25400
Ni402      Ni  0.87545100  0.40267176  0.12273731     1.25400
C403        C  0.87036680  0.37019294  0.17888234     0.87300
C404        C  0.88062805  0.38067850  0.06242785     0.87200
C405        C  0.93391508  0.37596187  0.12456303     0.87200
C406        C  0.81719046  0.37538986  0.11676953     0.87400
O407        O  0.92563377  0.35454584  0.87025860    -0.74900
O408        O  0.83779899  0.35372639  0.87369004    -0.75000
O409        O  0.87915119  0.35139849  0.82824724    -0.75000
O410        O  0.88367188  0.35703880  0.91579679    -0.75100
O411        O  0.88411711  0.40779859  0.91224930    -0.75000
O412        O  0.87914774  0.40208895  0.82449115    -0.75000
O413        O  0.83727812  0.40480091  0.87040251    -0.74900
O414        O  0.92511811  0.40557345  0.86654767    -0.75000
Ni415      Ni  0.88164533  0.35239533  0.87213624     1.25400
Ni416      Ni  0.88130798  0.40688925  0.86827330     1.25400
C417        C  0.93981270  0.38018735  0.86814664     0.87300
C418        C  0.82312492  0.37913749  0.87240017     0.87200
C419        C  0.87824778  0.37574602  0.81166637     0.87200
C420        C  0.88497055  0.38330319  0.92867552     0.87400
O421        O  0.12325209  0.35050590  0.07819928    -0.74900
O422        O  0.12426694  0.35042550  0.16634930    -0.75000
O423        O  0.07993222  0.35149957  0.12260389    -0.75000
O424        O  0.16754479  0.34859912  0.12173711    -0.75100
O425        O  0.16920709  0.39974638  0.12070113    -0.75000
O426        O  0.08125965  0.40264849  0.12302092    -0.75000
O427        O  0.12697792  0.40134352  0.16582661    -0.74900
O428        O  0.12359204  0.40155721  0.07826793    -0.75000
Ni429      Ni  0.12367398  0.34842829  0.12225721     1.25400
Ni430      Ni  0.12529999  0.40313101  0.12195459     1.25400
C431        C  0.12350395  0.37623234  0.06371242     0.87300
C432        C  0.12585327  0.37594677  0.18070724     0.87200
C433        C  0.06620995  0.37743357  0.12307385     0.87200
C434        C  0.18274627  0.37363073  0.12072821     0.87400
O435        O  0.17370147  0.40683876  0.87529932    -0.74900
O436        O  0.08631119  0.40559159  0.86947971    -0.75000
O437        O  0.12713943  0.40586096  0.91611586    -0.75000
O438        O  0.13265293  0.40586628  0.82835961    -0.75100
O439        O  0.13259723  0.35476653  0.82915647    -0.75000
O440        O  0.12924552  0.35484580  0.91663806    -0.75000
O441        O  0.08693081  0.35444682  0.87097217    -0.74900
O442        O  0.17488893  0.35569476  0.87514393    -0.75000
Ni443      Ni  0.12995063  0.40785431  0.87226460     1.25400
Ni444      Ni  0.13094424  0.35310922  0.87295281     1.25400
C445        C  0.18869755  0.38160145  0.87603319     0.87300
C446        C  0.07221140  0.37991571  0.86988736     0.87200
C447        C  0.12729079  0.38028893  0.93085213     0.87200
C448        C  0.13338292  0.38018962  0.81428451     0.87400
O449        O  0.64070682  0.83404524  0.13971804    -0.74900
O450        O  0.63777287  0.92191853  0.13515848    -0.75000
O451        O  0.63774281  0.87972390  0.18136053    -0.75000
O452        O  0.64022360  0.87650209  0.09337564    -0.75100
O453        O  0.58915389  0.87534363  0.09155897    -0.75000
O454        O  0.58684357  0.87796750  0.17921654    -0.75000
O455        O  0.58668756  0.92034984  0.13359671    -0.74900
O456        O  0.59005520  0.83213787  0.13673635    -0.75000
Ni457      Ni  0.64092300  0.87806296  0.13746889     1.25400
Ni458      Ni  0.58639397  0.87629486  0.13527866     1.25400
C459        C  0.61600888  0.81826773  0.13866809     0.87300
C460        C  0.61179185  0.93559400  0.13355965     0.87200
C461        C  0.61175705  0.87974578  0.19486966     0.87200
C462        C  0.61500527  0.87596925  0.07798917     0.87400
O463        O  0.65020304  0.83560406  0.88904214    -0.74900
O464        O  0.64945437  0.92351321  0.88958621    -0.75000
O465        O  0.64688016  0.87905165  0.93302182    -0.75000
O466        O  0.65288748  0.88031283  0.84554624    -0.75100
O467        O  0.60185185  0.88031697  0.84173736    -0.75000
O468        O  0.59587630  0.87811464  0.92922028    -0.75000
O469        O  0.59838952  0.92310637  0.88608920    -0.74900
O470        O  0.59927819  0.83517086  0.88458840    -0.75000
Ni471      Ni  0.65166398  0.87961305  0.88947640     1.25400
Ni472      Ni  0.59702752  0.87916436  0.88531566     1.25400
C473        C  0.62493806  0.82086384  0.88627054     0.87300
C474        C  0.62378142  0.93774043  0.88775161     0.87200
C475        C  0.62044954  0.87839346  0.94552380     0.87200
C476        C  0.62831127  0.88056268  0.82924648     0.87400
O477        O  0.65619917  0.17164949  0.87587385    -0.74900
O478        O  0.65330800  0.08362555  0.88170865    -0.75000
O479        O  0.65664588  0.12493451  0.83501702    -0.75000
O480        O  0.65276987  0.12937413  0.92275849    -0.75100
O481        O  0.60182578  0.12992032  0.92001737    -0.75000
O482        O  0.60613758  0.12937073  0.83233838    -0.75000
O483        O  0.60238679  0.08554612  0.87712566    -0.74900
O484        O  0.60547715  0.17343144  0.87569691    -0.75000
Ni485      Ni  0.65657139  0.12744717  0.87895900     1.25400
Ni486      Ni  0.60218091  0.12962831  0.87614078     1.25400
C487        C  0.63127208  0.18731457  0.87489803     0.87300
C488        C  0.62727788  0.07013841  0.88037668     0.87200
C489        C  0.63196900  0.12661240  0.81892681     0.87200
C490        C  0.62662195  0.12941153  0.93595210     0.87400
O491        O  0.64636084  0.16773834  0.12752002    -0.74900
O492        O  0.63862678  0.08033323  0.12972612    -0.75000
O493        O  0.64447753  0.12301129  0.08501224    -0.75000
O494        O  0.64063359  0.12483277  0.17246107    -0.75100
O495        O  0.58968904  0.12882565  0.16994719    -0.75000
O496        O  0.59372218  0.12809209  0.08195911    -0.75000
O497        O  0.58771339  0.08458895  0.12659568    -0.74900
O498        O  0.59541924  0.17220853  0.12505698    -0.75000
Ni499      Ni  0.64429170  0.12384467  0.12881715     1.25400
Ni500      Ni  0.58978427  0.12860370  0.12581547     1.25400
C501        C  0.62214711  0.18432268  0.12569334     0.87300
C502        C  0.61199635  0.06806944  0.12832277     0.87200
C503        C  0.61986014  0.12557278  0.06898816     0.87200
C504        C  0.61461447  0.12660591  0.18565945     0.87400
O505        O  0.12011792  0.60196231  0.07918712    -0.74900
O506        O  0.12137007  0.59839525  0.16712630    -0.75000
O507        O  0.07664856  0.60099527  0.12335712    -0.75000
O508        O  0.16454519  0.59942981  0.12304163    -0.75100
O509        O  0.16533058  0.65053991  0.12485379    -0.75000
O510        O  0.07745724  0.65210412  0.12433975    -0.75000
O511        O  0.12139532  0.64940702  0.16851755    -0.74900
O512        O  0.12136829  0.65301275  0.08060714    -0.75000
Ni513      Ni  0.12059226  0.59838169  0.12311667     1.25400
Ni514      Ni  0.12139676  0.65307510  0.12465046     1.25400
C515        C  0.12098939  0.62801872  0.06538080     0.87300
C516        C  0.12167431  0.62335468  0.18237538     0.87200
C517        C  0.06259693  0.62681761  0.12381148     0.87200
C518        C  0.17935528  0.62474462  0.12391837     0.87400
O519        O  0.17304684  0.65355622  0.87524999    -0.74900
O520        O  0.08529934  0.65383882  0.86911346    -0.75000
O521        O  0.12650823  0.65582931  0.91648692    -0.75000
O522        O  0.13163610  0.65178094  0.82846289    -0.75100
O523        O  0.13111222  0.60084621  0.83134857    -0.75000
O524        O  0.12682374  0.60479388  0.91905947    -0.75000
O525        O  0.08502568  0.60328040  0.87313027    -0.74900
O526        O  0.17269008  0.60251252  0.87783226    -0.75000
Ni527      Ni  0.12913694  0.65558704  0.87228086     1.25400
Ni528      Ni  0.12887607  0.60108672  0.87539715     1.25400
C529        C  0.18735294  0.62790898  0.87726778     0.87300
C530        C  0.07039131  0.62861450  0.87027894     0.87200
C531        C  0.12604694  0.63086966  0.93229547     0.87200
C532        C  0.13216445  0.62561124  0.81531989     0.87400
O533        O  0.92332472  0.59910859  0.87059230    -0.74900
O534        O  0.83528566  0.59311544  0.87273615    -0.75000
O535        O  0.87855548  0.59562227  0.82747145    -0.75000
O536        O  0.88114786  0.59576588  0.91517071    -0.75100
O537        O  0.87816920  0.64662486  0.91488935    -0.75000
O538        O  0.87365376  0.64628967  0.82666820    -0.75000
O539        O  0.83250510  0.64409152  0.87269190    -0.74900
O540        O  0.91958366  0.64971524  0.86820749    -0.75000
Ni541      Ni  0.87962896  0.59407760  0.87144733     1.25400
Ni542      Ni  0.87588208  0.64846397  0.87064133     1.25400
C543        C  0.93608977  0.62549191  0.86846177     0.87300
C544        C  0.81940230  0.61791588  0.87375913     0.87200
C545        C  0.87609650  0.62083894  0.81238709     0.87200
C546        C  0.87991224  0.62105826  0.92968554     0.87400
O547        O  0.87144060  0.60531099  0.16765386    -0.74900
O548        O  0.87308118  0.59919755  0.07995635    -0.75000
O549        O  0.91596549  0.60298231  0.12450746    -0.75000
O550        O  0.82810767  0.60100242  0.12376412    -0.75100
O551        O  0.82651161  0.65188841  0.11943821    -0.75000
O552        O  0.91476054  0.65401885  0.12115778    -0.75000
O553        O  0.87151962  0.65000814  0.07613249    -0.74900
O554        O  0.86915670  0.65609831  0.16387270    -0.75000
Ni555      Ni  0.87216264  0.60034642  0.12402870     1.25400
Ni556      Ni  0.87050934  0.65482441  0.11991369     1.25400
C557        C  0.86885730  0.63161324  0.18028376     0.87300
C558        C  0.87337341  0.62366633  0.06344162     0.87200
C559        C  0.92984242  0.62874694  0.12281931     0.87200
C560        C  0.81279915  0.62610236  0.12275235     0.87400
O561        O  0.41851624  0.37196472  0.14881180    -0.74900
O562        O  0.33091083  0.36746327  0.14624642    -0.75000
O563        O  0.37689473  0.32573977  0.14713596    -0.75000
O564        O  0.37226456  0.41382932  0.14742245    -0.75100
O565        O  0.37392446  0.41433069  0.09640408    -0.75000
O566        O  0.37694733  0.32658236  0.09619426    -0.75000
O567        O  0.33119578  0.36968944  0.09566888    -0.74900
O568        O  0.41934028  0.37198424  0.09779913    -0.75000
Ni569      Ni  0.37460817  0.36972727  0.14920874     1.25400
Ni570      Ni  0.37535371  0.37059788  0.09470384     1.25400
C571        C  0.43342155  0.37249663  0.12372054     0.87300
C572        C  0.31624961  0.36856809  0.12078877     0.87200
C573        C  0.37773165  0.31158915  0.12154465     0.87200
C574        C  0.37257161  0.42850091  0.12184194     0.87400
O575        O  0.37311310  0.66360494  0.09917659    -0.74900
O576        O  0.37112636  0.57598707  0.09683813    -0.75000
O577        O  0.32772358  0.62046999  0.09770203    -0.75000
O578        O  0.41599414  0.61871557  0.09918372    -0.75100
O579        O  0.41522836  0.61748948  0.15015059    -0.75000
O580        O  0.32759938  0.61958166  0.14835884    -0.75000
O581        O  0.37036258  0.57425395  0.14788779    -0.74900
O582        O  0.37192046  0.66219292  0.14996658    -0.75000
Ni583      Ni  0.37195717  0.61977456  0.09639629     1.25400
Ni584      Ni  0.37129414  0.61823806  0.15087742     1.25400
C585        C  0.37284004  0.67753057  0.12483969     0.87300
C586        C  0.37058422  0.56073314  0.12194490     0.87200
C587        C  0.31288917  0.62041650  0.12293799     0.87200
C588        C  0.43015330  0.61811287  0.12506748     0.87400
O589        O  0.66559120  0.62896419  0.10759376    -0.74900
O590        O  0.57802463  0.62549260  0.10582679    -0.75000
O591        O  0.62008679  0.67127626  0.10878867    -0.75000
O592        O  0.62349315  0.58345208  0.10468335    -0.75100
O593        O  0.62298901  0.58036212  0.15566413    -0.75000
O594        O  0.62006805  0.66840107  0.15979905    -0.75000
O595        O  0.57745710  0.62308967  0.15676865    -0.74900
O596        O  0.66571057  0.62549432  0.15852206    -0.75000
Ni597      Ni  0.62182894  0.62744687  0.10496551     1.25400
Ni598      Ni  0.62154588  0.62428206  0.15954450     1.25400
C599        C  0.68016689  0.62712344  0.13313652     0.87300
C600        C  0.56321420  0.62367338  0.13092743     0.87200
C601        C  0.61957411  0.68428923  0.13495606     0.87200
C602        C  0.62359514  0.56744781  0.12943105     0.87400
O603        O  0.66977711  0.37725400  0.14677744    -0.74900
O604        O  0.58179874  0.37537815  0.14875587    -0.75000
O605        O  0.62647008  0.33217543  0.14756423    -0.75000
O606        O  0.62502881  0.42012966  0.14772272    -0.75100
O607        O  0.62322641  0.42067880  0.09669215    -0.75000
O608        O  0.62594956  0.33269712  0.09690902    -0.75000
O609        O  0.58024829  0.37535348  0.09775347    -0.74900
O610        O  0.66836746  0.37744637  0.09599014    -0.75000
Ni611      Ni  0.62582120  0.37620310  0.14949413     1.25400
Ni612      Ni  0.62432432  0.37660395  0.09502440     1.25400
C613        C  0.68377168  0.37754344  0.12112742     0.87300
C614        C  0.56649758  0.37499196  0.12358573     0.87200
C615        C  0.62676338  0.31766427  0.12218993     0.87200
C616        C  0.62410759  0.43488564  0.12223952     0.87400
O617        O  0.37650240  0.67473820  0.85373664    -0.74900
O618        O  0.37817237  0.58730922  0.85059800    -0.75000
O619        O  0.33375300  0.63027209  0.85376123    -0.75000
O620        O  0.42179727  0.63191839  0.85114693    -0.75100
O621        O  0.42367293  0.62892524  0.90210273    -0.75000
O622        O  0.33585716  0.62859316  0.90468895    -0.75000
O623        O  0.37974871  0.58474119  0.90154242    -0.74900
O624        O  0.37991455  0.67318407  0.90425326    -0.75000
Ni625      Ni  0.37756115  0.63114608  0.85054999     1.25400
Ni626      Ni  0.37986875  0.62882744  0.90499759     1.25400
C627        C  0.37807858  0.68878159  0.87921674     0.87300
C628        C  0.37875742  0.57150416  0.87541149     0.87200
C629        C  0.32028794  0.62897047  0.87968209     0.87200
C630        C  0.43722364  0.63046382  0.87628843     0.87400
O631        O  0.67223563  0.63093896  0.85033856    -0.74900
O632        O  0.58424741  0.63131476  0.85004609    -0.75000
O633        O  0.62811307  0.67512050  0.85268504    -0.75000
O634        O  0.62830284  0.58733045  0.84765620    -0.75100
O635        O  0.62768354  0.58399082  0.89860125    -0.75000
O636        O  0.62954535  0.67166997  0.90358949    -0.75000
O637        O  0.58466848  0.62866672  0.90107012    -0.74900
O638        O  0.67248795  0.62636746  0.90116558    -0.75000
Ni639      Ni  0.62822396  0.63134976  0.84835529     1.25400
Ni640      Ni  0.62861495  0.62764074  0.90290606     1.25400
C641        C  0.68685429  0.62767568  0.87576262     0.87300
C642        C  0.57000722  0.63000567  0.87554160     0.87200
C643        C  0.62865471  0.68789981  0.87898212     0.87200
C644        C  0.62809457  0.57121210  0.87233305     0.87400
O645        O  0.67389748  0.37897676  0.89517529    -0.74900
O646        O  0.58590661  0.37913863  0.89137854    -0.75000
O647        O  0.63026553  0.33540123  0.89393089    -0.75000
O648        O  0.62949572  0.42327396  0.89324244    -0.75100
O649        O  0.62954374  0.42376130  0.84228242    -0.75000
O650        O  0.63352726  0.33546091  0.84301026    -0.75000
O651        O  0.58769848  0.37714397  0.84070056    -0.74900
O652        O  0.67550217  0.38149554  0.84459463    -0.75000
Ni653      Ni  0.62982731  0.37929007  0.89521010     1.25400
Ni654      Ni  0.63163111  0.37955471  0.84081011     1.25400
C655        C  0.68948396  0.37976930  0.87048621     0.87300
C656        C  0.57213874  0.37721173  0.86539808     0.87200
C657        C  0.63224507  0.32098774  0.86865243     0.87200
C658        C  0.62925887  0.43810873  0.86779568     0.87400
O659        O  0.37836606  0.33479085  0.84962560    -0.74900
O660        O  0.37700411  0.42297177  0.84604464    -0.75000
O661        O  0.42136566  0.37827488  0.84416861    -0.75000
O662        O  0.33393767  0.37868366  0.85165416    -0.75100
O663        O  0.33837995  0.38067908  0.90232328    -0.75000
O664        O  0.42612412  0.38115243  0.89468587    -0.75000
O665        O  0.38143399  0.42463489  0.89682700    -0.74900
O666        O  0.38350757  0.33669069  0.90035044    -0.75000
Ni667      Ni  0.37746469  0.37868969  0.84607693     1.25400
Ni668      Ni  0.38249662  0.38079807  0.90034264     1.25400
C669        C  0.38202559  0.32124008  0.87554862     0.87300
C670        C  0.37856297  0.43836211  0.87091440     0.87200
C671        C  0.43833947  0.37879853  0.86823323     0.87200
C672        C  0.32158665  0.38051242  0.87808024     0.87400
C673        C  0.52188523  0.35997227  0.88812166    -0.02300
C674        C  0.53784966  0.37493035  0.86417048     0.07300
C675        C  0.52064238  0.38723070  0.83918862    -0.02500
C676        C  0.48829168  0.38786854  0.84001295    -0.02500
C677        C  0.47246391  0.37603419  0.86571723     0.07500
C678        C  0.48954905  0.36046664  0.88885041    -0.02700
Br679      Br  0.46899126  0.33689270  0.92033461    -0.01200
Br680      Br  0.54379765  0.33591629  0.91878697    -0.01300
Br681      Br  0.46645648  0.40510096  0.80514362    -0.01200
Br682      Br  0.54042397  0.40319556  0.80297412    -0.01200
C683        C  0.60716751  0.52173672  0.85209489    -0.02300
C684        C  0.62861095  0.53731205  0.87060354     0.07300
C685        C  0.65041287  0.52035365  0.88782279    -0.02500
C686        C  0.65052820  0.48807576  0.88684475    -0.02500
C687        C  0.62919465  0.47230035  0.86822272     0.07500
C688        C  0.60757376  0.48943429  0.85079624    -0.02700
Br689      Br  0.57692146  0.46904761  0.82662909    -0.01200
Br690      Br  0.57581567  0.54452598  0.82997426    -0.01300
Br691      Br  0.68093039  0.46577840  0.91044239    -0.01200
Br692      Br  0.68131430  0.54130349  0.91175668    -0.01200
C693        C  0.35662593  0.48808862  0.88969769    -0.02300
C694        C  0.37693639  0.47249306  0.87015337     0.07300
C695        C  0.39631350  0.48976246  0.85090266    -0.02500
C696        C  0.39741720  0.52197400  0.85311562    -0.02500
C697        C  0.37800058  0.53748592  0.87356503     0.07500
C698        C  0.35684031  0.52041698  0.89104248    -0.02700
Br699      Br  0.32641763  0.54130651  0.91506571    -0.01200
Br700      Br  0.32680345  0.46533479  0.91310570    -0.01300
Br701      Br  0.42686630  0.54450846  0.82896546    -0.01200
Br702      Br  0.42187171  0.46967128  0.82155158    -0.01200
C703        C  0.48764336  0.60543315  0.88888482    -0.02300
C704        C  0.47121480  0.63025125  0.87572806     0.07300
C705        C  0.48742064  0.65513197  0.86289314    -0.02500
C706        C  0.51972208  0.65484632  0.86241266    -0.02500
C707        C  0.53609233  0.63003398  0.87554010     0.07500
C708        C  0.51996104  0.60542603  0.88898712    -0.02700
Br709      Br  0.54208832  0.57107821  0.90664994    -0.01200
Br710      Br  0.46590415  0.57087305  0.90600749    -0.01300
Br711      Br  0.54159566  0.68928431  0.84515075    -0.01200
Br712      Br  0.46558795  0.69078920  0.84815261    -0.01200
C713        C  0.64875640  0.48415684  0.13777009    -0.02300
C714        C  0.62457490  0.46884490  0.12265482     0.07300
C715        C  0.60048368  0.48603866  0.10917876    -0.02500
C716        C  0.60015968  0.51825987  0.11160013    -0.02500
C717        C  0.62391963  0.53352822  0.12745982     0.07500
C718        C  0.64813045  0.51631013  0.14073771    -0.02700
Br719      Br  0.68083937  0.53661819  0.16259219    -0.01200
Br720      Br  0.68391248  0.46116194  0.15251171    -0.01300
Br721      Br  0.56600002  0.54135475  0.09485252    -0.01200
Br722      Br  0.56732385  0.46550755  0.08821978    -0.01200
C723        C  0.48025995  0.64100412  0.10873348    -0.02300
C724        C  0.46422434  0.61892546  0.12616484     0.07300
C725        C  0.48085113  0.59855885  0.14550994    -0.02500
C726        C  0.51313797  0.60016106  0.14724668    -0.02500
C727        C  0.52915842  0.62226256  0.12977724     0.07500
C728        C  0.51248944  0.64268011  0.11053782    -0.02700
Br729      Br  0.53343589  0.67443922  0.08776077    -0.01200
Br730      Br  0.45813728  0.67058666  0.08371320    -0.01300
Br731      Br  0.53527409  0.57082355  0.17254093    -0.01200
Br732      Br  0.45969533  0.56740099  0.16887561    -0.01200
C733        C  0.48354942  0.39542064  0.14139679    -0.02300
C734        C  0.46743208  0.37294717  0.12458930     0.07300
C735        C  0.48397972  0.35040049  0.10872751    -0.02500
C736        C  0.51626485  0.35069832  0.10906767    -0.02500
C737        C  0.53243682  0.37407625  0.12440210     0.07500
C738        C  0.51590455  0.39628580  0.14085678    -0.02700
Br739      Br  0.53745249  0.42876571  0.16171132    -0.01200
Br740      Br  0.46153804  0.42560775  0.16468274    -0.01300
Br741      Br  0.53814524  0.31744494  0.09057410    -0.01200
Br742      Br  0.46244877  0.31774635  0.08801958    -0.01200
C743        C  0.39642150  0.47897980  0.10891270    -0.02300
C744        C  0.37174034  0.46233715  0.12141339     0.07300
C745        C  0.34579022  0.47814376  0.13207939    -0.02500
C746        C  0.34490092  0.51037713  0.13095607    -0.02500
C747        C  0.37058810  0.52697348  0.12087801     0.07500
C748        C  0.39611257  0.51123740  0.10922253    -0.02700
Br749      Br  0.43080212  0.53385364  0.09387190    -0.01200
Br750      Br  0.43078878  0.45770473  0.09138830    -0.01300
Br751      Br  0.30742040  0.53169994  0.14005247    -0.01200
Br752      Br  0.31063443  0.45579804  0.14643465    -0.01200
C753        C  0.76064284  0.60457537  0.10997109    -0.02300
C754        C  0.77890542  0.62541130  0.12660835     0.07300
C755        C  0.76467381  0.64484228  0.14805907    -0.02500
C756        C  0.73243441  0.64505939  0.15098086    -0.02500
C757        C  0.71417238  0.62566860  0.13262668     0.07500
C758        C  0.72855255  0.60478102  0.11285453    -0.02700
Br759      Br  0.70442420  0.57505839  0.09054310    -0.01200
Br760      Br  0.77902633  0.57554766  0.08281405    -0.01300
Br761      Br  0.71353636  0.67249628  0.17969050    -0.01200
Br762      Br  0.78934326  0.66953806  0.17530398    -0.01200
C763        C  0.77105462  0.63711302  0.89741832    -0.02300
C764        C  0.78543357  0.61729177  0.87650828     0.07300
C765        C  0.76707491  0.59950544  0.85671458    -0.02500
C766        C  0.73497801  0.60344412  0.85593441    -0.02500
C767        C  0.72075277  0.62439316  0.87584764     0.07500
C768        C  0.73896876  0.64086356  0.89691678    -0.02700
Br769      Br  0.72043452  0.67020573  0.92399228    -0.01200
Br770      Br  0.79517122  0.65796473  0.92822577    -0.01300
Br771      Br  0.71067713  0.57941575  0.82772068    -0.01200
Br772      Br  0.78539060  0.56958347  0.83050271    -0.01200
C773        C  0.89624449  0.64271489  0.98088532    -0.02300
C774        C  0.87987684  0.62049390  0.96398951     0.07300
C775        C  0.86359121  0.59749314  0.98018122    -0.02500
C776        C  0.86200614  0.59807149  0.01246365    -0.02500
C777        C  0.87647427  0.62170767  0.02928930     0.07500
C778        C  0.89460584  0.64333079  0.01318330    -0.02700
Br779      Br  0.91971878  0.67247690  0.03516164    -0.01200
Br780      Br  0.92326413  0.67095373  0.96017751    -0.01300
Br781      Br  0.83926748  0.56616129  0.03291087    -0.01200
Br782      Br  0.84234048  0.56506078  0.95863905    -0.01200
C783        C  0.23805252  0.60800961  0.85938103    -0.02300
C784        C  0.22131525  0.62751522  0.87873982     0.07300
C785        C  0.23717346  0.64643237  0.89959814    -0.02500
C786        C  0.26948959  0.64655770  0.90042868    -0.02500
C787        C  0.28627333  0.62761012  0.88050069     0.07500
C788        C  0.27031757  0.60762388  0.86069642    -0.02700
Br789      Br  0.29243411  0.57808339  0.83658872    -0.01200
Br790      Br  0.21707891  0.58294380  0.82953751    -0.01300
Br791      Br  0.29032360  0.67354490  0.92849171    -0.01200
Br792      Br  0.21472895  0.67159547  0.92792488    -0.01200
C793        C  0.01867807  0.65536132  0.87564703    -0.02300
C794        C  0.03591083  0.62867778  0.86834451     0.07300
C795        C  0.01964114  0.60211295  0.85879634    -0.02500
C796        C  0.98747910  0.60265827  0.85573744    -0.02500
C797        C  0.97030501  0.62781797  0.86647509     0.07500
C798        C  0.98627558  0.65459873  0.87567717    -0.02700
Br799      Br  0.96469548  0.69108854  0.88868608    -0.01200
Br800      Br  0.03829045  0.69361082  0.88688503    -0.01300
Br801      Br  0.96770882  0.56984442  0.83329377    -0.01200
Br802      Br  0.03992202  0.56371011  0.84995724    -0.01200
C803        C  0.22936451  0.61078575  0.14857707    -0.02300
C804        C  0.21321015  0.62409758  0.12385512     0.07300
C805        C  0.22933271  0.63656134  0.09900614    -0.02500
C806        C  0.26156302  0.63428462  0.09793805    -0.02500
C807        C  0.27839842  0.62145893  0.12308759     0.07500
C808        C  0.26169124  0.61030906  0.14885562    -0.02700
Br809      Br  0.28161421  0.59398898  0.18537994    -0.01200
Br810      Br  0.20684583  0.59405293  0.18282326    -0.01300
Br811      Br  0.28137830  0.64965504  0.06154247    -0.01200
Br812      Br  0.20696934  0.65686370  0.06615296    -0.01200
C813        C  0.01265901  0.64288632  0.14669283    -0.02300
C814        C  0.02867528  0.62749245  0.12349376     0.07300
C815        C  0.01216133  0.61286817  0.09985871    -0.02500
C816        C  0.97985626  0.61370758  0.09938633    -0.02500
C817        C  0.96381624  0.62901120  0.12265015     0.07500
C818        C  0.98036460  0.64347045  0.14631483    -0.02700
Br819      Br  0.95884301  0.66237346  0.17940129    -0.01200
Br820      Br  0.03481601  0.66177578  0.18005667    -0.01300
Br821      Br  0.95765492  0.59476696  0.06614205    -0.01200
Br822      Br  0.03380217  0.59272485  0.06731294    -0.01200
C823        C  0.10105125  0.64721716  0.01429617    -0.02300
C824        C  0.12222711  0.62922038  0.03135177     0.07300
C825        C  0.14498349  0.61259827  0.01572309    -0.02500
C826        C  0.14712051  0.61472134  0.98359276    -0.02500
C827        C  0.12525537  0.63166163  0.96639239     0.07500
C828        C  0.10209880  0.64779708  0.98195720    -0.02700
Br829      Br  0.07041222  0.66898035  0.95917039    -0.01200
Br830      Br  0.06935236  0.66973624  0.03506581    -0.01300
Br831      Br  0.18137179  0.59583865  0.96329728    -0.01200
Br832      Br  0.17385256  0.58707925  0.03811338    -0.01200
C833        C  0.61469493  0.23406607  0.09789589    -0.02300
C834        C  0.62502549  0.21801896  0.12407340     0.07300
C835        C  0.63825886  0.23409415  0.14854734    -0.02500
C836        C  0.63909753  0.26640608  0.14799724    -0.02500
C837        C  0.62764129  0.28316202  0.12212502     0.07500
C838        C  0.61674838  0.26630691  0.09638099    -0.02700
Br839      Br  0.60475544  0.28584648  0.05810871    -0.01200
Br840      Br  0.59863369  0.21143418  0.06339957    -0.01300
Br841      Br  0.65746470  0.28639738  0.18292007    -0.01200
Br842      Br  0.65492709  0.21154770  0.18327278    -0.01200
C843        C  0.65770747  0.27115129  0.88209210    -0.02300
C844        C  0.63259261  0.28708076  0.86925614     0.07300
C845        C  0.60723266  0.27072594  0.85804841    -0.02500
C846        C  0.60680567  0.23839086  0.85951495    -0.02500
C847        C  0.63200922  0.22181372  0.87265920     0.07500
C848        C  0.65762089  0.23879382  0.88378277    -0.02700
Br849      Br  0.69279791  0.21897879  0.90257629    -0.01200
Br850      Br  0.69258005  0.29409478  0.89710502    -0.01300
Br851      Br  0.57137811  0.21799063  0.84215894    -0.01200
Br852      Br  0.57230586  0.29313403  0.84174807    -0.01200
C853        C  0.64524737  0.14595999  0.98811649    -0.02300
C854        C  0.62496175  0.12830166  0.97004310     0.07300
C855        C  0.60339943  0.10906881  0.98480879    -0.02500
C856        C  0.60174539  0.10814268  0.01705967    -0.02500
C857        C  0.62183376  0.12608812  0.03501051     0.07500
C858        C  0.64394858  0.14460342  0.02032377    -0.02700
Br859      Br  0.67216972  0.16929057  0.04402285    -0.01200
Br860      Br  0.67404958  0.17358994  0.96918151    -0.01300
Br861      Br  0.57317458  0.08048845  0.03654275    -0.01200
Br862      Br  0.57714972  0.08218336  0.96130525    -0.01200
C863        C  0.64603003  0.77232013  0.86417787    -0.02300
C864        C  0.62558066  0.78684201  0.88436582     0.07300
C865        C  0.60579110  0.76869392  0.90241987    -0.02500
C866        C  0.60675113  0.73642054  0.90058096    -0.02500
C867        C  0.62776294  0.72190539  0.88095343     0.07500
C868        C  0.64740565  0.74006768  0.86278463    -0.02700
Br869      Br  0.67738699  0.72098813  0.83679882    -0.01200
Br870      Br  0.67105677  0.79647429  0.83679401    -0.01300
Br871      Br  0.57801995  0.71228418  0.92403999    -0.01200
Br872      Br  0.57779870  0.78774581  0.93052477    -0.01200
C873        C  0.63709706  0.98860119  0.91058594    -0.02300
C874        C  0.62357081  0.97159959  0.88669980     0.07300
C875        C  0.61067731  0.98702911  0.86115500    -0.02500
C876        C  0.61239612  0.01916651  0.85893865    -0.02500
C877        C  0.62591672  0.03627196  0.88271336     0.07500
C878        C  0.63795109  0.02088423  0.90876657    -0.02700
Br879      Br  0.65439864  0.04398494  0.94263105    -0.01200
Br880      Br  0.65319272  0.96773418  0.94647487    -0.01300
Br881      Br  0.59813617  0.03941732  0.82218139    -0.01200
Br882      Br  0.59156401  0.96418553  0.82844360    -0.01200
C883        C  0.64406759  0.76773402  0.12872450    -0.02300
C884        C  0.61752927  0.78363185  0.13911287     0.07300
C885        C  0.59220730  0.76578731  0.14933887    -0.02500
C886        C  0.59315137  0.73342350  0.14834158    -0.02500
C887        C  0.61880950  0.71824112  0.13646590     0.07500
C888        C  0.64404475  0.73544452  0.12639757    -0.02700
Br889      Br  0.67902636  0.71432388  0.10960874    -0.01200
Br890      Br  0.68158527  0.78868712  0.11807887    -0.01300
Br891      Br  0.55862084  0.70956627  0.16236382    -0.01200
Br892      Br  0.55619900  0.78446667  0.16653385    -0.01200
C893        C  0.59426235  0.98641944  0.15335267    -0.02300
C894        C  0.61079891  0.96949958  0.13159303     0.07300
C895        C  0.62634394  0.98510940  0.10792547    -0.02500
C896        C  0.62548601  0.01734470  0.10618625    -0.02500
C897        C  0.60969342  0.03425849  0.12842817     0.07500
C898        C  0.59341942  0.01870461  0.15158417    -0.02700
Br899      Br  0.57074611  0.04150486  0.18155932    -0.01200
Br900      Br  0.57478024  0.96553009  0.18710224    -0.01300
Br901      Br  0.64452017  0.03839388  0.07220988    -0.01200
Br902      Br  0.64852172  0.96254568  0.07740285    -0.01200
C903        C  0.63282075  0.85412771  0.02833587    -0.02300
C904        C  0.61567428  0.87631664  0.04403549     0.07300
C905        C  0.59917416  0.89879952  0.02712235    -0.02500
C906        C  0.60028886  0.89924457  0.99485808    -0.02500
C907        C  0.61842895  0.87763134  0.97932147     0.07500
C908        C  0.63478335  0.85515291  0.99622391    -0.02700
Br909      Br  0.65901094  0.82473210  0.97543789    -0.01200
Br910      Br  0.65150001  0.82056891  0.05047918    -0.01300
Br911      Br  0.57804443  0.93049283  0.97214435    -0.01200
Br912      Br  0.57584770  0.92983817  0.04796767    -0.01200
C913        C  0.27127622  0.39972069  0.85686446    -0.02300
C914        C  0.28747100  0.38311950  0.87992690     0.07300
C915        C  0.27057264  0.36906317  0.90382734    -0.02500
C916        C  0.23822210  0.36886712  0.90265693    -0.02500
C917        C  0.22251035  0.38257967  0.87776320     0.07500
C918        C  0.23907636  0.39856409  0.85522845    -0.02700
Br919      Br  0.21772692  0.41814783  0.82132561    -0.01200
Br920      Br  0.29257890  0.42723279  0.82941610    -0.01300
Br921      Br  0.21514582  0.35130582  0.93606137    -0.01200
Br922      Br  0.29068859  0.35082832  0.93897587    -0.01200
C923        C  0.23312574  0.38047317  0.14670198    -0.02300
C924        C  0.21652481  0.37228317  0.12041545     0.07300
C925        C  0.23204681  0.36203034  0.09439200    -0.02500
C926        C  0.26440549  0.36129834  0.09403228    -0.02500
C927        C  0.28170267  0.36920186  0.12070699     0.07500
C928        C  0.26534038  0.37817734  0.14740029    -0.02700
Br929      Br  0.28539649  0.38770703  0.18592538    -0.01200
Br930      Br  0.21111335  0.39414357  0.18234795    -0.01300
Br931      Br  0.28365268  0.34864342  0.05645793    -0.01200
Br932      Br  0.20862432  0.34894395  0.05904587    -0.01200
C933        C  0.14380850  0.39801304  0.01450897    -0.02300
C934        C  0.12424715  0.37708454  0.02969652     0.07300
C935        C  0.10513194  0.35769552  0.01218661    -0.02500
C936        C  0.10600450  0.35883852  0.97992382    -0.02500
C937        C  0.12544671  0.37992327  0.96479594     0.07500
C938        C  0.14378271  0.39999327  0.98232296    -0.02700
Br939      Br  0.16987263  0.42990686  0.96261296    -0.01200
Br940      Br  0.17259799  0.42281884  0.03738715    -0.01300
Br941      Br  0.07889974  0.33258366  0.95667102    -0.01200
Br942      Br  0.07631287  0.33060124  0.03207124    -0.01200
C943        C  0.77320844  0.36945122  0.84605761    -0.02300
C944        C  0.78926025  0.37864814  0.87240495     0.07300
C945        C  0.77306916  0.38610912  0.89892789    -0.02500
C946        C  0.74070235  0.38632962  0.89873477    -0.02500
C947        C  0.72399761  0.37841116  0.87170048     0.07500
C948        C  0.74089074  0.36856876  0.84576900    -0.02700
Br949      Br  0.72106866  0.35086774  0.81027052    -0.01200
Br950      Br  0.79596603  0.35787908  0.81017239    -0.01300
Br951      Br  0.72067968  0.39720047  0.93643774    -0.01200
Br952      Br  0.79564144  0.39447885  0.93613656    -0.01200
C953        C  0.98981087  0.39625866  0.89140816    -0.02300
C954        C  0.97368774  0.38057262  0.86820786     0.07300
C955        C  0.99004336  0.36508686  0.84534813    -0.02500
C956        C  0.02229665  0.36445409  0.84611666    -0.02500
C957        C  0.03839162  0.37989807  0.86942562     0.07500
C958        C  0.02208524  0.39596904  0.89199262    -0.02700
Br959      Br  0.04384480  0.41641074  0.92468959    -0.01200
Br960      Br  0.96774396  0.41730136  0.92311599    -0.01300
Br961      Br  0.04443977  0.34360254  0.81435960    -0.01200
Br962      Br  0.96841634  0.34661427  0.81167520    -0.01200
C963        C  0.76795541  0.36147730  0.14199156    -0.02300
C964        C  0.78323548  0.37534632  0.11728006     0.07300
C965        C  0.76611411  0.39049504  0.09424282    -0.02500
C966        C  0.73388420  0.39232883  0.09605543    -0.02500
C967        C  0.71814545  0.37761920  0.12040347     0.07500
C968        C  0.73569848  0.36243220  0.14359342    -0.02700
Br969      Br  0.71661910  0.34222304  0.17792903    -0.01200
Br970      Br  0.79149062  0.34180511  0.17441816    -0.01300
Br971      Br  0.71223538  0.41734316  0.06608297    -0.01200
Br972      Br  0.78683720  0.40750007  0.05926962    -0.01200
C973        C  0.98325330  0.38975144  0.09937074    -0.02300
C974        C  0.96777736  0.37676327  0.12456637     0.07300
C975        C  0.98474817  0.36520726  0.14973963    -0.02500
C976        C  0.01701428  0.36589226  0.14943094    -0.02500
C977        C  0.03243803  0.37802499  0.12385776     0.07500
C978        C  0.01552232  0.38997650  0.09882753    -0.02700
Br979      Br  0.03655582  0.40521119  0.06312712    -0.01200
Br980      Br  0.96030118  0.40699647  0.06534763    -0.01300
Br981      Br  0.04017869  0.35129485  0.18455311    -0.01200
Br982      Br  0.96383860  0.35011560  0.18537815    -0.01200
C983        C  0.90197562  0.36126613  0.97995506    -0.02300
C984        C  0.88716448  0.38499424  0.96298113     0.07300
C985        C  0.87422345  0.40981846  0.97924854    -0.02500
C986        C  0.87297514  0.40905611  0.01159348    -0.02500
C987        C  0.88468790  0.38349412  0.02837848     0.07500
C988        C  0.90081311  0.36056306  0.01225705    -0.02700
Br989      Br  0.92395620  0.32916309  0.03410426    -0.01200
Br990      Br  0.92626059  0.33049478  0.95950977    -0.01300
Br991      Br  0.85474403  0.44369448  0.03205546    -0.01200
Br992      Br  0.85753725  0.44541092  0.95803622    -0.01200
C993        C  0.38770963  0.75943260  0.15139025    -0.02300
C994        C  0.37326725  0.77686125  0.12804273     0.07300
C995        C  0.35947318  0.76172749  0.10313447    -0.02500
C996        C  0.35889764  0.72944816  0.10215586    -0.02500
C997        C  0.37352088  0.71176192  0.12552705     0.07500
C998        C  0.38867809  0.72718397  0.14975869    -0.02700
Br999      Br  0.41273139  0.70488314  0.18008735    -0.01200
Br1000     Br  0.40494710  0.77956782  0.18665336    -0.01300
Br1001     Br  0.33672330  0.71038201  0.06893043    -0.01200
Br1002     Br  0.34268808  0.78525811  0.06925479    -0.01200
C1003       C  0.38461090  0.77276883  0.85213727    -0.02300
C1004       C  0.37626839  0.78874914  0.87850041     0.07300
C1005       C  0.36933828  0.77244012  0.90542104    -0.02500
C1006       C  0.36999005  0.74006262  0.90600581    -0.02500
C1007       C  0.37776803  0.72338490  0.87924029     0.07500
C1008       C  0.38506319  0.74043462  0.85213737    -0.02700
Br1009     Br  0.39650608  0.72109711  0.81413778    -0.01200
Br1010     Br  0.39570227  0.79566404  0.81575839    -0.01300
Br1011     Br  0.35927424  0.71990897  0.94404044    -0.01200
Br1012     Br  0.36046104  0.79489705  0.94216246    -0.01200
C1013       C  0.40369628  0.88248129  0.98967931    -0.02300
C1014       C  0.37691034  0.87699209  0.97181990     0.07300
C1015       C  0.34942078  0.86893789  0.98736484    -0.02500
C1016       C  0.34869599  0.86726825  0.01967161    -0.02500
C1017       C  0.37557421  0.87258451  0.03756605     0.07500
C1018       C  0.40328098  0.87967887  0.02196707    -0.02700
Br1019     Br  0.44170096  0.88625100  0.04377500    -0.01200
Br1020     Br  0.44185191  0.89526548  0.97096907    -0.01300
Br1021     Br  0.30967542  0.85661767  0.03819236    -0.01200
Br1022     Br  0.31183573  0.85867191  0.96540100    -0.01200
C1023       C  0.36914690  0.23775774  0.89799036    -0.02300
C1024       C  0.38855913  0.22241715  0.87753594     0.07300
C1025       C  0.40719404  0.23962170  0.85750667    -0.02500
C1026       C  0.40571203  0.27196451  0.85744655    -0.02500
C1027       C  0.38492873  0.28727630  0.87676651     0.07500
C1028       C  0.36709093  0.26991947  0.89734724    -0.02700
Br1029     Br  0.33855608  0.28968642  0.92399357    -0.01200
Br1030     Br  0.34594897  0.21477351  0.92792813    -0.01300
Br1031     Br  0.43348605  0.29513685  0.83201182    -0.01200
Br1032     Br  0.43367126  0.21904490  0.82901517    -0.01200
C1033       C  0.36636932  0.02203399  0.85355805    -0.02300
C1034       C  0.38178749  0.03808441  0.87699082     0.07300
C1035       C  0.39533292  0.02173368  0.90165290    -0.02500
C1036       C  0.39386760  0.98949383  0.90263375    -0.02500
C1037       C  0.37908772  0.97338879  0.87885295     0.07500
C1038       C  0.36520940  0.98976941  0.85439027    -0.02700
Br1039     Br  0.34584618  0.96797320  0.82114097    -0.01200
Br1040     Br  0.34782396  0.04407983  0.81957140    -0.01300
Br1041     Br  0.41062327  0.96759771  0.93752155    -0.01200
Br1042     Br  0.41447671  0.04354214  0.93506436    -0.01200
C1043       C  0.36248792  0.22771748  0.10208524    -0.02300
C1044       C  0.38143659  0.21228436  0.12370769     0.07300
C1045       C  0.40054368  0.22964292  0.14323868    -0.02500
C1046       C  0.40031409  0.26198714  0.14146427    -0.02500
C1047       C  0.37976165  0.27744804  0.12136740     0.07500
C1048       C  0.36117754  0.26003553  0.10131741    -0.02700
Br1049     Br  0.33284120  0.27995597  0.07327495    -0.01200
Br1050     Br  0.33929316  0.20469399  0.07215182    -0.01300
Br1051     Br  0.42991611  0.28493696  0.16513164    -0.01200
Br1052     Br  0.42601606  0.20945954  0.17370341    -0.01200
C1053       C  0.35690085  0.01178170  0.15071111    -0.02300
C1054       C  0.37444768  0.02708302  0.12822439     0.07300
C1055       C  0.39017894  0.00974239  0.10627764    -0.02500
C1056       C  0.38876490  0.97747460  0.10701187    -0.02500
C1057       C  0.37209323  0.96206324  0.13002606     0.07500
C1058       C  0.35578554  0.97941256  0.15163893    -0.02700
Br1059     Br  0.33276568  0.95897900  0.18331135    -0.01200
Br1060     Br  0.33536559  0.03500107  0.18122882    -0.01300
Br1061     Br  0.40782787  0.95457605  0.07482510    -0.01200
Br1062     Br  0.41234013  0.03020154  0.07394636    -0.01200
C1063       C  0.36087028  0.10390935  0.01573765    -0.02300
C1064       C  0.37968542  0.12302505  0.03384681     0.07300
C1065       C  0.39900947  0.14454039  0.01919004    -0.02500
C1066       C  0.39927460  0.14705293  0.98692718    -0.02500
C1067       C  0.38088763  0.12754716  0.96878624     0.07500
C1068       C  0.36160773  0.10600624  0.98343807    -0.02700
Br1069     Br  0.33734517  0.07790823  0.95941513    -0.01200
Br1070     Br  0.33538884  0.07331331  0.03505778    -0.01300
Br1071     Br  0.42358722  0.17869642  0.96771920    -0.01200
Br1072     Br  0.42455484  0.17162658  0.04316181    -0.01200
C1073       C  0.90731804  0.01167174  0.63279764    -0.02300
C1074       C  0.88531853  0.02944284  0.61662767     0.07300
C1075       C  0.86084297  0.01458003  0.60151276    -0.02500
C1076       C  0.85872029  0.98234846  0.60197706    -0.02500
C1077       C  0.88079508  0.96439109  0.61787016     0.07500
C1078       C  0.90485114  0.97933820  0.63379418    -0.02700
Br1079     Br  0.93503750  0.95576504  0.65656688    -0.01200
Br1080     Br  0.94178206  0.03147258  0.65234023    -0.01300
Br1081     Br  0.82390019  0.96321667  0.58263638    -0.01200
Br1082     Br  0.82874207  0.03841332  0.58169917    -0.01200
C1083       C  0.02483251  0.15223454  0.61907561    -0.02300
C1084       C  0.04072735  0.12781543  0.60532456     0.07300
C1085       C  0.02382085  0.10390114  0.59173285    -0.02500
C1086       C  0.99155348  0.10370928  0.59294473    -0.02500
C1087       C  0.97581542  0.12739470  0.60793149     0.07500
C1088       C  0.99251849  0.15199413  0.62050945    -0.02700
Br1089     Br  0.97110562  0.18595079  0.63870088    -0.01200
Br1090     Br  0.04721758  0.18676944  0.63471684    -0.01300
Br1091     Br  0.96896074  0.06988838  0.57557056    -0.01200
Br1092     Br  0.04468358  0.07030245  0.57290335    -0.01200
C1093       C  0.01478247  0.89482334  0.59620007    -0.02300
C1094       C  0.03219766  0.86943835  0.60657988     0.07300
C1095       C  0.01682657  0.84308625  0.61736305    -0.02500
C1096       C  0.98450884  0.84276805  0.61938144    -0.02500
C1097       C  0.96712076  0.86810964  0.60874667     0.07500
C1098       C  0.98242708  0.89379074  0.59634419    -0.02700
Br1099     Br  0.95909468  0.92817927  0.58050275    -0.01200
Br1100     Br  0.03518445  0.93187365  0.58369089    -0.01300
Br1101     Br  0.96406332  0.80731363  0.63619800    -0.01200
Br1102     Br  0.04002425  0.80684252  0.62793336    -0.01200
C1103       C  0.14444529  0.97993282  0.62543717    -0.02300
C1104       C  0.12908938  0.96465013  0.60126619     0.07300
C1105       C  0.11791444  0.98231388  0.57616255    -0.02500
C1106       C  0.12043496  0.01466344  0.57623696    -0.02500
C1107       C  0.13194053  0.03006623  0.60244692     0.07500
C1108       C  0.14475449  0.01220655  0.62669298    -0.02700
Br1109     Br  0.16503192  0.03124181  0.66133424    -0.01200
Br1110     Br  0.16821649  0.95706044  0.65570536    -0.01300
Br1111     Br  0.10842088  0.03698036  0.53960790    -0.01200
Br1112     Br  0.09839469  0.96292988  0.54146605    -0.01200
C1113       C  0.63096515  0.90255871  0.27719843    -0.02300
C1114       C  0.61039288  0.88415705  0.29411627     0.07300
C1115       C  0.58904407  0.86574226  0.27831212    -0.02500
C1116       C  0.58910395  0.86461566  0.24605482    -0.02500
C1117       C  0.61053390  0.88200536  0.22900221     0.07500
C1118       C  0.63075019  0.90180943  0.24488496    -0.02700
Br1119     Br  0.65678700  0.92993126  0.22265989    -0.01200
Br1120     Br  0.66057247  0.92811802  0.29804745    -0.01300
Br1121     Br  0.55965373  0.83855670  0.22596076    -0.01200
Br1122     Br  0.55844557  0.84296875  0.30078117    -0.01200
C1123       C  0.61702819  0.85684597  0.74660934    -0.02300
C1124       C  0.63044536  0.88183820  0.73028571     0.07300
C1125       C  0.64586650  0.90484334  0.74734570    -0.02500
C1126       C  0.64585200  0.90401935  0.77968223    -0.02500
C1127       C  0.63028277  0.88052256  0.79543567     0.07500
C1128       C  0.61640086  0.85672335  0.77885980    -0.02700
Br1129     Br  0.59722401  0.82307911  0.80068486    -0.01200
Br1130     Br  0.59955257  0.82170434  0.72621330    -0.01300
Br1131     Br  0.66659854  0.93571058  0.80251295    -0.01200
Br1132     Br  0.66919184  0.93667302  0.72719747    -0.01200
C1133       C  0.73070600  0.89087796  0.60404777    -0.02300
C1134       C  0.71651250  0.88125653  0.63120536     0.07300
C1135       C  0.73467791  0.87125550  0.65607256    -0.02500
C1136       C  0.76696114  0.86964208  0.65356318    -0.02500
C1137       C  0.78167332  0.87746976  0.62542642     0.07500
C1138       C  0.76274742  0.88798182  0.60057142    -0.02700
Br1139     Br  0.77910235  0.89897563  0.56095797    -0.01200
Br1140     Br  0.70593593  0.90920107  0.57174261    -0.01300
Br1141     Br  0.78962007  0.85604633  0.68950043    -0.01200
Br1142     Br  0.71498679  0.86173796  0.69448116    -0.01200
C1143       C  0.63968243  0.86649895  0.52838779    -0.02300
C1144       C  0.62012785  0.88654650  0.54451286     0.07300
C1145       C  0.59905412  0.90488989  0.52777070    -0.02500
C1146       C  0.59785664  0.90369207  0.49548149    -0.02500
C1147       C  0.61808091  0.88445985  0.47934904     0.07500
C1148       C  0.63900563  0.86585293  0.49604909    -0.02700
Br1149     Br  0.66792551  0.84030385  0.47480377    -0.01200
Br1150     Br  0.66794877  0.83981913  0.55031295    -0.01300
Br1151     Br  0.56673849  0.92691479  0.47354848    -0.01200
Br1152     Br  0.56981866  0.92983354  0.54896451    -0.01200
C1153       C  0.26709864  0.89428495  0.59558516    -0.02300
C1154       C  0.28238419  0.87391567  0.61614445     0.07300
C1155       C  0.26524172  0.84996728  0.62988904    -0.02500
C1156       C  0.23296865  0.84984778  0.62746112    -0.02500
C1157       C  0.21763944  0.87194377  0.60918259     0.07500
C1158       C  0.23494753  0.89296064  0.59181143    -0.02700
Br1159     Br  0.21466667  0.92028972  0.56304225    -0.01200
Br1160     Br  0.29019789  0.92230427  0.57017975    -0.01300
Br1161     Br  0.20964893  0.81844281  0.64829829    -0.01200
Br1162     Br  0.28509263  0.81604015  0.65066599    -0.01200
C1163       C  0.35264627  0.86501942  0.73773698     0.07300
C1164       C  0.37253451  0.88401376  0.72090486     0.07300
C1165       C  0.39360564  0.90282187  0.73673890    -0.02500
C1166       C  0.39499248  0.90229449  0.76905906    -0.02500
C1167       C  0.37523526  0.88294111  0.78597254     0.07500
C1168       C  0.35384393  0.86446653  0.76998607    -0.02700
Br1169     Br  0.32630000  0.83741006  0.79172912    -0.01200
Br1170     Br  0.32245102  0.84072206  0.71672269    -0.01300
Br1171     Br  0.42301839  0.92956940  0.78981422    -0.01200
Br1172     Br  0.42139924  0.92884457  0.71417632    -0.01200
C1173       C  0.51548956  0.91968123  0.63051169    -0.02300
C1174       C  0.53129829  0.89366858  0.64285126     0.07300
C1175       C  0.51368090  0.87054535  0.65731531    -0.02500
C1176       C  0.48136871  0.87179808  0.65658304    -0.02500
C1177       C  0.46585558  0.89477120  0.63937332     0.07500
C1178       C  0.48310084  0.91969045  0.62779958    -0.02700
Br1179     Br  0.46302126  0.95415262  0.60785097    -0.01200
Br1180     Br  0.53704032  0.95636460  0.61788267    -0.01300
Br1181     Br  0.45847485  0.84370072  0.68224144    -0.01200
Br1182     Br  0.53309978  0.83794444  0.68055252    -0.01200
C1183       C  0.39290360  0.85997533  0.27404121    -0.02300
C1184       C  0.36558060  0.86834606  0.28846194     0.07300
C1185       C  0.33912477  0.87425280  0.27086894    -0.02500
C1186       C  0.34026084  0.87395768  0.23865791    -0.02500
C1187       C  0.36823428  0.86694247  0.22350891     0.07500
C1188       C  0.39449667  0.85932317  0.24184096    -0.02700
Br1189     Br  0.43322114  0.84720918  0.22434484    -0.01200
Br1190     Br  0.42838055  0.84931976  0.29885511    -0.01300
Br1191     Br  0.30273707  0.88444124  0.21678172    -0.01200
Br1192     Br  0.30071661  0.88107761  0.29132479    -0.01200
C1193       C  0.47365890  0.90066677  0.36262021    -0.02300
C1194       C  0.45690578  0.88277985  0.38379825     0.07300
C1195       C  0.47267270  0.86775030  0.40809065    -0.02500
C1196       C  0.50490750  0.86917689  0.41017088    -0.02500
C1197       C  0.52166292  0.88588479  0.38819935     0.07500
C1198       C  0.50589271  0.90207917  0.36475846    -0.02700
Br1199     Br  0.52850492  0.92499130  0.33438416    -0.01200
Br1200     Br  0.45292848  0.92261707  0.32983229    -0.01300
Br1201     Br  0.52601970  0.84943837  0.44410556    -0.01200
Br1202     Br  0.45013244  0.84695558  0.43997819    -0.01200
C1203       C  0.38814910  0.90444141  0.48569073    -0.02300
C1204       C  0.36697134  0.88425073  0.47177849     0.07300
C1205       C  0.34795997  0.86590410  0.49031821    -0.02500
C1206       C  0.35081123  0.86679136  0.52237300    -0.02500
C1207       C  0.37276523  0.88606403  0.53632471     0.07500
C1208       C  0.39091432  0.90541848  0.51786789    -0.02700
Br1209     Br  0.42050702  0.93246559  0.53641920    -0.01200
Br1210     Br  0.41463658  0.92979865  0.46089225    -0.01300
Br1211     Br  0.32298182  0.84278419  0.54700757    -0.01200
Br1212     Br  0.31652755  0.84073057  0.47204610    -0.01200
C1213       C  0.86420176  0.39691829  0.72712412    -0.02300
C1214       C  0.87775212  0.37198782  0.71208051     0.07300
C1215       C  0.88962695  0.34730001  0.72941214    -0.02500
C1216       C  0.88810612  0.34742270  0.76169893    -0.02500
C1217       C  0.87649974  0.37352385  0.77728510     0.07500
C1218       C  0.86355471  0.39783328  0.75941163    -0.02700
Br1219     Br  0.84228966  0.43169700  0.77818852    -0.01200
Br1220     Br  0.84720211  0.43053001  0.70323500    -0.01300
Br1221     Br  0.90097548  0.31055679  0.78321199    -0.01200
Br1222     Br  0.90737592  0.31270952  0.70855749    -0.01200
C1223       C  0.85760253  0.26174650  0.63536056    -0.02300
C1224       C  0.87751545  0.27919940  0.61679706     0.07300
C1225       C  0.89695235  0.26402408  0.59606804    -0.02500
C1226       C  0.89730502  0.23175343  0.59478161    -0.02500
C1227       C  0.87787180  0.21432844  0.61382370     0.07500
C1228       C  0.85734082  0.22951049  0.63338019    -0.02700
Br1229     Br  0.82741258  0.20629846  0.65617723    -0.01200
Br1230     Br  0.83187417  0.28160763  0.66502624    -0.01300
Br1231     Br  0.92533969  0.21159582  0.56747260    -0.01200
Br1232     Br  0.92249998  0.28722781  0.56836045    -0.01200
C1233       C  0.87767447  0.34394405  0.26278261    -0.02300
C1234       C  0.86232667  0.36786656  0.27786110     0.07300
C1235       C  0.84670146  0.39035710  0.26039891    -0.02500
C1236       C  0.84829226  0.39030704  0.22814954    -0.02500
C1237       C  0.86575527  0.36771352  0.21283455     0.07500
C1238       C  0.87881091  0.34336574  0.23047277    -0.02700
Br1239     Br  0.89807369  0.30857970  0.21138690    -0.01200
Br1240     Br  0.89668099  0.31137520  0.28663347    -0.01300
Br1241     Br  0.82438445  0.42033523  0.20536643    -0.01200
Br1242     Br  0.82411490  0.42226522  0.28072770    -0.01200
C1243       C  0.85620943  0.35326471  0.47930497    -0.02300
C1244       C  0.87387535  0.37447433  0.46236587     0.07300
C1245       C  0.89467703  0.39379679  0.47805203    -0.02500
C1246       C  0.89633758  0.39319939  0.51035768    -0.02500
C1247       C  0.87816439  0.37242264  0.52724108     0.07500
C1248       C  0.85871582  0.35194343  0.51147432    -0.02700
Br1249     Br  0.83693756  0.32042626  0.53376171    -0.01200
Br1250     Br  0.82988209  0.32433155  0.45855063    -0.01300
Br1251     Br  0.92234849  0.42217257  0.53138264    -0.01200
Br1252     Br  0.92054203  0.42185220  0.45561829    -0.01200
C1253       C  0.85293450  0.72999371  0.63753271    -0.02300
C1254       C  0.87190203  0.71360580  0.61739617     0.07300
C1255       C  0.88970941  0.72991087  0.59588304    -0.02500
C1256       C  0.88905205  0.76226895  0.59493817    -0.02500
C1257       C  0.87070525  0.77878391  0.61567905     0.07500
C1258       C  0.85217165  0.76233379  0.63651855    -0.02700
Br1259     Br  0.82410175  0.78376286  0.66264512    -0.01200
Br1260     Br  0.82890688  0.70830957  0.66772870    -0.01300
Br1261     Br  0.91422828  0.78361236  0.56550206    -0.01200
Br1262     Br  0.91438023  0.70798148  0.56674004    -0.01200
C1263       C  0.86158558  0.59736427  0.72903802    -0.02300
C1264       C  0.87493977  0.62195048  0.71290124     0.07300
C1265       C  0.88897518  0.64590458  0.72922709    -0.02500
C1266       C  0.89018648  0.64510028  0.76152566    -0.02500
C1267       C  0.87633070  0.62068772  0.77804800     0.07500
C1268       C  0.86283011  0.59630889  0.76131259    -0.02700
Br1269     Br  0.84641121  0.56053608  0.78154685    -0.01200
Br1270     Br  0.84177955  0.56462944  0.70676904    -0.01300
Br1271     Br  0.91369733  0.67626379  0.78239595    -0.01200
Br1272     Br  0.90500677  0.68089647  0.70722409    -0.01200
C1273       C  0.89717092  0.51231125  0.64198824    -0.02300
C1274       C  0.87842327  0.52874216  0.62099045     0.07300
C1275       C  0.86102254  0.51262973  0.59897443    -0.02500
C1276       C  0.86155352  0.48036622  0.59860981    -0.02500
C1277       C  0.87989988  0.46390688  0.61992138     0.07500
C1278       C  0.89817023  0.48002504  0.64124729    -0.02700
Br1279     Br  0.92377692  0.45806895  0.67044384    -0.01200
Br1280     Br  0.92034944  0.53379261  0.67298760    -0.01300
Br1281     Br  0.83834390  0.45887959  0.56757559    -0.01200
Br1282     Br  0.83779367  0.53463281  0.56788956    -0.01200
C1283       C  0.84720826  0.60882945  0.26175816    -0.02300
C1284       C  0.86397087  0.63019898  0.27913157     0.07300
C1285       C  0.87887262  0.65466375  0.26410261    -0.02500
C1286       C  0.87811858  0.65698112  0.23185510    -0.02500
C1287       C  0.86489548  0.63317486  0.21422543     0.07500
C1288       C  0.84779151  0.61014578  0.22952034    -0.02700
Br1289     Br  0.82247292  0.58186044  0.20668156    -0.01200
Br1290     Br  0.82412261  0.57695570  0.28207118    -0.01300
Br1291     Br  0.89354357  0.69395817  0.21292048    -0.01200
Br1292     Br  0.89979596  0.68562738  0.28778215    -0.01200
C1293       C  0.88163483  0.51484943  0.34413506    -0.02300
C1294       C  0.86592942  0.53082257  0.36719393     0.07300
C1295       C  0.84898233  0.51414558  0.38912910    -0.02500
C1296       C  0.84907189  0.48181975  0.38894156    -0.02500
C1297       C  0.86585120  0.46579904  0.36661474     0.07500
C1298       C  0.88152151  0.48249025  0.34379885    -0.02700
Br1299     Br  0.90099329  0.46110390  0.31071623    -0.01200
Br1300     Br  0.90147995  0.53729326  0.31161030    -0.01300
Br1301     Br  0.82701374  0.45968635  0.42030114    -0.01200
Br1302     Br  0.82625004  0.53538038  0.42028812    -0.01200
C1303       C  0.88995594  0.59753843  0.47960102    -0.02300
C1304       C  0.87287952  0.62009168  0.46343541     0.07300
C1305       C  0.85681513  0.64263645  0.47984515    -0.02500
C1306       C  0.85681637  0.64198659  0.51206429    -0.02500
C1307       C  0.87432649  0.61983084  0.52827088     0.07500
C1308       C  0.89099834  0.59764806  0.51191736    -0.02700
Br1309     Br  0.91371765  0.56614368  0.53373820    -0.01200
Br1310     Br  0.91061520  0.56546045  0.45762204    -0.01300
Br1311     Br  0.83312503  0.67207726  0.53386720    -0.01200
Br1312     Br  0.83647009  0.67591244  0.45829566    -0.01200
C1313       C  0.37599914  0.15498187  0.76667532    -0.02300
C1314       C  0.39078468  0.13152808  0.78366429     0.07300
C1315       C  0.40680383  0.10846927  0.76799812    -0.02500
C1316       C  0.40657424  0.10787452  0.73566585    -0.02500
C1317       C  0.38936419  0.12979690  0.71841337     0.07500
C1318       C  0.37517335  0.15418123  0.73433466    -0.02700
Br1319     Br  0.35422927  0.18693220  0.71281177    -0.01200
Br1320     Br  0.35807579  0.18925783  0.78789555    -0.01300
Br1321     Br  0.43211479  0.07807503  0.71548594    -0.01200
Br1322     Br  0.42827024  0.07676937  0.79082547    -0.01200
C1323       C  0.27586773  0.09834498  0.60249256    -0.02300
C1324       C  0.29069771  0.11880842  0.62281784     0.07300
C1325       C  0.27268504  0.13938237  0.63979845    -0.02500
C1326       C  0.24047735  0.13919572  0.63710127    -0.02500
C1327       C  0.22572978  0.11899631  0.61670385     0.07500
C1328       C  0.24356348  0.09864633  0.59928633    -0.02700
Br1329     Br  0.22367979  0.07037669  0.57174304    -0.01200
Br1330     Br  0.29963633  0.07076261  0.57771393    -0.01300
Br1331     Br  0.21661440  0.16766698  0.66082699    -0.01200
Br1332     Br  0.29171508  0.16766577  0.66755412    -0.01200
C1333       C  0.39358841  0.09582235  0.23586668    -0.02300
C1334       C  0.37854558  0.11915223  0.21891657     0.07300
C1335       C  0.36398543  0.14316896  0.23446588    -0.02500
C1336       C  0.36342241  0.14340372  0.26673952    -0.02500
C1337       C  0.37655577  0.11884080  0.28398172     0.07500
C1338       C  0.39289908  0.09577250  0.26816406    -0.02700
Br1339     Br  0.41693193  0.06527107  0.29024074    -0.01200
Br1340     Br  0.41428097  0.06305593  0.21485094    -0.01300
Br1341     Br  0.34500959  0.17826349  0.28626498    -0.01200
Br1342     Br  0.34563930  0.17661197  0.21131588    -0.01200
C1343       C  0.37988127  0.08163891  0.48570061    -0.02300
C1344       C  0.36630965  0.10640123  0.46919189     0.07300
C1345       C  0.35281644  0.13045941  0.48592445    -0.02500
C1346       C  0.35621729  0.13172359  0.51803207    -0.02500
C1347       C  0.37420875  0.10958901  0.53404297     0.07500
C1348       C  0.38475309  0.08369172  0.51769468    -0.02700
Br1349     Br  0.40646537  0.05061361  0.53817021    -0.01200
Br1350     Br  0.39091368  0.04392115  0.46549791    -0.01300
Br1351     Br  0.33328732  0.16246614  0.53993342    -0.01200
Br1352     Br  0.32683417  0.16046419  0.46542987    -0.01200
C1353       C  0.74180512  0.13655612  0.60293317    -0.02300
C1354       C  0.72673582  0.11670149  0.62360086     0.07300
C1355       C  0.74439777  0.09701663  0.64277847    -0.02500
C1356       C  0.77674329  0.09769100  0.64166149    -0.02500
C1357       C  0.79172921  0.11797548  0.62131897     0.07500
C1358       C  0.77403103  0.13754436  0.60215783    -0.02700
Br1359     Br  0.79369060  0.16734290  0.57583689    -0.01200
Br1360     Br  0.71853896  0.16140130  0.57405456    -0.01300
Br1361     Br  0.80029241  0.06999206  0.66750314    -0.01200
Br1362     Br  0.72463944  0.06951182  0.67136157    -0.01200
C1363       C  0.60953738  0.11113046  0.73512891    -0.02300
C1364       C  0.63627110  0.11970712  0.71963070     0.07300
C1365       C  0.66165216  0.13069081  0.73625932    -0.02500
C1366       C  0.66037596  0.13326026  0.76845371    -0.02500
C1367       C  0.63326957  0.12489935  0.78451139     0.07500
C1368       C  0.60754761  0.11443370  0.76712336    -0.02700
Br1369     Br  0.56850937  0.10496796  0.78557644    -0.01200
Br1370     Br  0.57510782  0.09523345  0.71201643    -0.01300
Br1371     Br  0.69566169  0.15049983  0.78922095    -0.01200
Br1372     Br  0.69860802  0.14146117  0.71459043    -0.01200
C1373       C  0.49312818  0.10147933  0.60692239    -0.02300
C1374       C  0.47640307  0.12113856  0.62605293     0.07300
C1375       C  0.49251791  0.14100228  0.64591715    -0.02500
C1376       C  0.52492170  0.14074063  0.64693146    -0.02500
C1377       C  0.54158992  0.12049473  0.62817087     0.07500
C1378       C  0.52541213  0.10089007  0.60812083    -0.02700
Br1379     Br  0.54717463  0.07400950  0.58078529    -0.01200
Br1380     Br  0.47201729  0.07677133  0.57718962    -0.01300
Br1381     Br  0.54616546  0.16713880  0.67539817    -0.01200
Br1382     Br  0.47035775  0.16782452  0.67288343    -0.01200
C1383       C  0.60134108  0.14933632  0.23655625    -0.02300
C1384       C  0.61365076  0.12508279  0.21958769     0.07300
C1385       C  0.62604416  0.09941579  0.23508171    -0.02500
C1386       C  0.62513475  0.09730734  0.26729222    -0.02500
C1387       C  0.61505474  0.12267908  0.28494670     0.07500
C1388       C  0.60361065  0.14912318  0.26887348    -0.02700
Br1389     Br  0.59113927  0.18615151  0.28957417    -0.01200
Br1390     Br  0.58193529  0.18343917  0.21530483    -0.01300
Br1391     Br  0.63803078  0.05879790  0.28571019    -0.01200
Br1392     Br  0.64426242  0.06656077  0.21192348    -0.01200
C1393       C  0.50991437  0.12530192  0.35405470    -0.02300
C1394       C  0.52695340  0.11297240  0.37885562     0.07300
C1395       C  0.51145540  0.09752054  0.40264327    -0.02500
C1396       C  0.47911543  0.09693038  0.40289981    -0.02500
C1397       C  0.46211544  0.11024287  0.37857467     0.07500
C1398       C  0.47768478  0.12382944  0.35382528    -0.02700
Br1399     Br  0.45489056  0.13940527  0.31887715    -0.01200
Br1400     Br  0.53071151  0.14190606  0.31903838    -0.01300
Br1401     Br  0.45820673  0.07965514  0.43753760    -0.01200
Br1402     Br  0.53432989  0.07694873  0.43484528    -0.01200
C1403       C  0.64987308  0.10565841  0.48529600    -0.02300
C1404       C  0.62374485  0.11830684  0.47058986     0.07300
C1405       C  0.60021616  0.13118004  0.48837086    -0.02500
C1406       C  0.60283446  0.13140291  0.52056870    -0.02500
C1407       C  0.62872634  0.11827645  0.53525592     0.07500
C1408       C  0.65219132  0.10533827  0.51751815    -0.02700
Br1409     Br  0.68826858  0.08847660  0.53732878    -0.01200
Br1410     Br  0.68351162  0.09060676  0.46123883    -0.01300
Br1411     Br  0.57044530  0.14901357  0.54461185    -0.01200
Br1412     Br  0.56377992  0.14757063  0.46879708    -0.01200
C1413       C  0.15386958  0.64330343  0.76456450    -0.02300
C1414       C  0.13373512  0.62401174  0.78113817     0.07300
C1415       C  0.11484479  0.60339278  0.76472150    -0.02500
C1416       C  0.11556352  0.60252847  0.73246565    -0.02500
C1417       C  0.13478069  0.62262173  0.71596192     0.07500
C1418       C  0.15422946  0.64274474  0.73220904    -0.02700
Br1419     Br  0.18058938  0.67067503  0.71022030    -0.01200
Br1420     Br  0.18222335  0.66973132  0.78592954    -0.01300
Br1421     Br  0.09092955  0.57258195  0.71100579    -0.01200
Br1422     Br  0.08650630  0.57700397  0.78581600    -0.01200
C1423       C  0.14689739  0.76251381  0.59422662    -0.02300
C1424       C  0.13116294  0.77963874  0.61667599     0.07300
C1425       C  0.11959603  0.76386908  0.64276581    -0.02500
C1426       C  0.12030439  0.73158214  0.64419664    -0.02500
C1427       C  0.13378100  0.71468895  0.62057742     0.07500
C1428       C  0.14809840  0.73022880  0.59619473    -0.02700
Br1429     Br  0.16900729  0.70723993  0.56502608    -0.01200
Br1430     Br  0.16969309  0.78284099  0.56216990    -0.01300
Br1431     Br  0.10397046  0.71023590  0.67944354    -0.01200
Br1432     Br  0.10354713  0.78536734  0.67769986    -0.01200
C1433       C  0.10431713  0.60173798  0.26547356    -0.02300
C1434       C  0.12314399  0.62255444  0.28162475     0.07300
C1435       C  0.14212394  0.64277697  0.26489680    -0.02500
C1436       C  0.14244222  0.64214606  0.23266937    -0.02500
C1437       C  0.12266594  0.62229073  0.21648307     0.07500
C1438       C  0.10374329  0.60189656  0.23313122    -0.02700
Br1439     Br  0.07592555  0.57473098  0.21201181    -0.01200
Br1440     Br  0.08017811  0.57178297  0.28745305    -0.01300
Br1441     Br  0.17163690  0.66750162  0.21101408    -0.01200
Br1442     Br  0.16670864  0.67295676  0.28556639    -0.01200
C1443       C  0.11252106  0.64578814  0.48293566    -0.02300
C1444       C  0.12647172  0.62188676  0.46661054     0.07300
C1445       C  0.14166117  0.59805278  0.48279229    -0.02500
C1446       C  0.14196579  0.59769156  0.51505868    -0.02500
C1447       C  0.12740965  0.62132615  0.53132451     0.07500
C1448       C  0.11236557  0.64520008  0.51514787    -0.02700
Br1449     Br  0.09239476  0.67784649  0.53696541    -0.01200
Br1450     Br  0.09648240  0.68104912  0.46128753    -0.01300
Br1451     Br  0.16091883  0.56386317  0.53699057    -0.01200
Br1452     Br  0.16212868  0.56578918  0.46092968    -0.01200
C1453       C  0.12521443  0.26291393  0.64500394    -0.02300
C1454       C  0.13840775  0.28034104  0.62129847     0.07300
C1455       C  0.15365653  0.26533606  0.59741541    -0.02500
C1456       C  0.15454213  0.23300875  0.59648248    -0.02500
C1457       C  0.13956048  0.21519242  0.61922816     0.07500
C1458       C  0.12648242  0.23059183  0.64455242    -0.02700
Br1459     Br  0.11105049  0.20859537  0.67979824    -0.01200
Br1460     Br  0.10592322  0.28360258  0.67874911    -0.01300
Br1461     Br  0.17904839  0.21378401  0.56534154    -0.01200
Br1462     Br  0.17227324  0.28916688  0.56504314    -0.01200
C1463       C  0.11447384  0.39480034  0.73009192    -0.02300
C1464       C  0.13530568  0.37483376  0.71553279     0.07300
C1465       C  0.15627514  0.35765239  0.73364705    -0.02500
C1466       C  0.15651823  0.36052868  0.76579427    -0.02500
C1467       C  0.13493977  0.37956304  0.78032942     0.07500
C1468       C  0.11406858  0.39686595  0.76228686    -0.02700
Br1469     Br  0.08385498  0.42261174  0.78152663    -0.01200
Br1470     Br  0.08692920  0.42049907  0.70617153    -0.01300
Br1471     Br  0.18769113  0.33952805  0.78978710    -0.01200
Br1472     Br  0.18348243  0.32851725  0.71487445    -0.01200
C1473       C  0.10923143  0.48140995  0.60617376    -0.02300
C1474       C  0.13002078  0.46502321  0.62523120     0.07300
C1475       C  0.15011502  0.48133315  0.64474992    -0.02500
C1476       C  0.14992110  0.51363159  0.64467324    -0.02500
C1477       C  0.12960402  0.53001276  0.62512376     0.07500
C1478       C  0.10929696  0.51373261  0.60584146    -0.02700
Br1479     Br  0.08312563  0.53544688  0.57696900    -0.01200
Br1480     Br  0.08144646  0.45985933  0.57918916    -0.01300
Br1481     Br  0.17698890  0.53525240  0.67238026    -0.01200
Br1482     Br  0.17693630  0.45967706  0.67310740    -0.01200
C1483       C  0.14295460  0.35319217  0.26389115    -0.02300
C1484       C  0.12590030  0.37513679  0.28012762     0.07300
C1485       C  0.10968918  0.39810444  0.26369791    -0.02500
C1486       C  0.10972395  0.39857269  0.23134789    -0.02500
C1487       C  0.12631588  0.37613060  0.21495361     0.07500
C1488       C  0.14342860  0.35383132  0.23160024    -0.02700
Br1489     Br  0.16941824  0.32503202  0.21064468    -0.01200
Br1490     Br  0.16514555  0.32135969  0.28581467    -0.01300
Br1491     Br  0.08604655  0.42983743  0.21006102    -0.01200
Br1492     Br  0.08861950  0.43009848  0.28552414    -0.01200
C1493       C  0.11118641  0.48144509  0.39688590    -0.02300
C1494       C  0.12692745  0.46571947  0.37371940     0.07300
C1495       C  0.14276823  0.48244280  0.35106515    -0.02500
C1496       C  0.14289139  0.51471566  0.35156516    -0.02500
C1497       C  0.12731184  0.53044815  0.37481842     0.07500
C1498       C  0.11138426  0.51370336  0.39744919    -0.02700
Br1499     Br  0.09047449  0.53475568  0.42994000    -0.01200
Br1500     Br  0.09017696  0.45887237  0.42864719    -0.01300
Br1501     Br  0.16261274  0.53732369  0.31904923    -0.01200
Br1502     Br  0.16277661  0.46127039  0.31814469    -0.01200
C1503       C  0.14632275  0.39533623  0.48089516    -0.02300
C1504       C  0.12768744  0.37381151  0.46541554     0.07300
C1505       C  0.11039533  0.35259623  0.48270398    -0.02500
C1506       C  0.11253431  0.35221105  0.51496523    -0.02500
C1507       C  0.13094731  0.37387221  0.53044177     0.07500
C1508       C  0.14753490  0.39568846  0.51321095    -0.02700
Br1509     Br  0.17047348  0.42743927  0.53374829    -0.01200
Br1510     Br  0.16918113  0.42558651  0.45797509    -0.01300
Br1511     Br  0.09159555  0.32052289  0.53780013    -0.01200
Br1512     Br  0.08450850  0.32304609  0.46239769    -0.01200
C1513       C  0.75552640  0.88676449  0.40618026    -0.02300
C1514       C  0.77068833  0.87588587  0.37955426     0.07300
C1515       C  0.75233630  0.86686916  0.35402039    -0.02500
C1516       C  0.72004722  0.86836337  0.35546305    -0.02500
C1517       C  0.70574280  0.88079696  0.38126333     0.07500
C1518       C  0.72351482  0.89072477  0.40613193    -0.02700
Br1519     Br  0.70355238  0.90934952  0.44071560    -0.01200
Br1520     Br  0.77686093  0.89548758  0.44413421    -0.01300
Br1521     Br  0.69511522  0.85369266  0.32179648    -0.01200
Br1522     Br  0.77010326  0.85094646  0.31704491    -0.01200
C1523       C  0.84730207  0.76386790  0.35412773    -0.02300
C1524       C  0.86601963  0.78060811  0.37458921     0.07300
C1525       C  0.88691756  0.76455937  0.39391800    -0.02500
C1526       C  0.88798077  0.73222981  0.39381202    -0.02500
C1527       C  0.86903749  0.71562290  0.37354298     0.07500
C1528       C  0.84910196  0.73163994  0.35333367    -0.02700
Br1529     Br  0.82477900  0.70957110  0.32350959    -0.01200
Br1530     Br  0.81792033  0.78447963  0.32787041    -0.01300
Br1531     Br  0.91424618  0.71083803  0.42279527    -0.01200
Br1532     Br  0.91557696  0.78665967  0.41951118    -0.01200
C1533       C  0.84632757  0.23103123  0.36315255    -0.02300
C1534       C  0.86738979  0.21621508  0.38311110     0.07300
C1535       C  0.88704627  0.23401667  0.40167375    -0.02500
C1536       C  0.88651039  0.26629803  0.39924967    -0.02500
C1537       C  0.86693154  0.28098792  0.37769467     0.07500
C1538       C  0.84634027  0.26319508  0.36014411    -0.02700
Br1539     Br  0.81850271  0.28248042  0.33111246    -0.01200
Br1540     Br  0.81603712  0.20737987  0.34105687    -0.01300
Br1541     Br  0.91115606  0.29038418  0.42704866    -0.01200
Br1542     Br  0.91550651  0.21443795  0.42983062    -0.01200
C1543       C  0.76093784  0.14622757  0.39512402    -0.02300
C1544       C  0.77757437  0.12441360  0.37828709     0.07300
C1545       C  0.76153330  0.10337021  0.35981410    -0.02500
C1546       C  0.72916988  0.10357992  0.35876404    -0.02500
C1547       C  0.71224419  0.12480944  0.37637392     0.07500
C1548       C  0.72853913  0.14644943  0.39426668    -0.02700
Br1549     Br  0.70708496  0.17584968  0.41905370    -0.01200
Br1550     Br  0.78262651  0.17678126  0.41868343    -0.01300
Br1551     Br  0.70859258  0.07512131  0.33190761    -0.01200
Br1552     Br  0.78386163  0.07309727  0.33680384    -0.01200
C1553       C  0.89046832  0.01418363  0.36453970    -0.02300
C1554       C  0.87015957  0.03105146  0.38300346     0.07300
C1555       C  0.84884591  0.01512054  0.40132147    -0.02500
C1556       C  0.84811045  0.98280662  0.40153815    -0.02500
C1557       C  0.86747163  0.96589036  0.38216539     0.07500
C1558       C  0.88877382  0.98184647  0.36370215    -0.02700
Br1559     Br  0.91704798  0.95952227  0.33832865    -0.01200
Br1560     Br  0.92197993  0.03507947  0.34163908    -0.01300
Br1561     Br  0.81952502  0.96218155  0.42792073    -0.01200
Br1562     Br  0.81879471  0.03744052  0.42462012    -0.01200
C1563       C  0.14024789  0.76632697  0.36327865    -0.02300
C1564       C  0.11476942  0.78047382  0.37664359     0.07300
C1565       C  0.09064551  0.76252296  0.38791320    -0.02500
C1566       C  0.09160642  0.73036580  0.38529101    -0.02500
C1567       C  0.11865790  0.71554178  0.37456914     0.07500
C1568       C  0.14317879  0.73419204  0.36392130    -0.02700
Br1569     Br  0.18137090  0.71724462  0.34970618    -0.01200
Br1570     Br  0.17131230  0.79114886  0.34372548    -0.01300
Br1571     Br  0.05471916  0.70824039  0.39614974    -0.01200
Br1572     Br  0.05555600  0.78232103  0.40601294    -0.01200
C1573       C  0.22155923  0.89676720  0.36839262    -0.02300
C1574       C  0.20598995  0.87185630  0.38162971     0.07300
C1575       C  0.22292503  0.84725466  0.39433160    -0.02500
C1576       C  0.25523926  0.84665115  0.39221971    -0.02500
C1577       C  0.27135788  0.87206473  0.37943155     0.07500
C1578       C  0.25384909  0.89719445  0.36742878    -0.02700
Br1579     Br  0.27267249  0.93269546  0.34834614    -0.01200
Br1580     Br  0.19839847  0.93172800  0.35343023    -0.01300
Br1581     Br  0.27611538  0.81018514  0.40702424    -0.01200
Br1582     Br  0.20177445  0.81431163  0.41518963    -0.01200
C1583       C  0.97252608  0.85107213  0.36217631    -0.02300
C1584       C  0.95605598  0.87247937  0.37956597     0.07300
C1585       C  0.97205472  0.89377344  0.39784673    -0.02500
C1586       C  0.00434759  0.89378065  0.39853525    -0.02500
C1587       C  0.02092554  0.87260691  0.38082149     0.07500
C1588       C  0.00481131  0.85140963  0.36243228    -0.02700
Br1589     Br  0.02670879  0.82198343  0.33809407    -0.01200
Br1590     Br  0.95091825  0.81984269  0.33953136    -0.01300
Br1591     Br  0.02557712  0.92433785  0.42226697    -0.01200
Br1592     Br  0.94980357  0.92402953  0.42098210    -0.01200
C1593       C  0.22728571  0.09401351  0.38967745    -0.02300
C1594       C  0.21155359  0.11834541  0.37501488     0.07300
C1595       C  0.22818229  0.14079517  0.35894822    -0.02500
C1596       C  0.26049358  0.13942091  0.35816502    -0.02500
C1597       C  0.27665745  0.11559092  0.37372746     0.07500
C1598       C  0.25961762  0.09280027  0.38948876    -0.02700
Br1599     Br  0.27996394  0.06066192  0.41277170    -0.01200
Br1600     Br  0.20424713  0.06149032  0.40900503    -0.01300
Br1601     Br  0.28186982  0.17002839  0.33466181    -0.01200
Br1602     Br  0.20651172  0.17407418  0.33868954    -0.01200
C1603       C  0.11083209  0.23249796  0.35005606    -0.02300
C1604       C  0.12407671  0.21606567  0.37524508     0.07300
C1605       C  0.13957780  0.23285341  0.39839888    -0.02500
C1606       C  0.13963374  0.26515767  0.39765921    -0.02500
C1607       C  0.12520257  0.28120890  0.37341184     0.07500
C1608       C  0.11104357  0.26485084  0.34954549    -0.02700
Br1609     Br  0.09256962  0.28697994  0.31547997    -0.01200
Br1610     Br  0.09278031  0.21191016  0.31522961    -0.01300
Br1611     Br  0.15848714  0.28760605  0.43080903    -0.01200
Br1612     Br  0.16352225  0.21236112  0.43004026    -0.01200
C1613       C  0.01065371  0.15030147  0.37531233    -0.02300
C1614       C  0.02730787  0.12601403  0.38905654     0.07300
C1615       C  0.01127510  0.10224447  0.40410984    -0.02500
C1616       C  0.97891464  0.10225367  0.40431304    -0.02500
C1617       C  0.96240192  0.12560651  0.38879068     0.07500
C1618       C  0.97839173  0.14986435  0.37466247    -0.02700
Br1619     Br  0.95611008  0.18325152  0.35534544    -0.01200
Br1620     Br  0.03196000  0.18534776  0.35920052    -0.01300
Br1621     Br  0.95720412  0.06944753  0.42464577    -0.01200
Br1622     Br  0.03338834  0.06878106  0.42316347    -0.01200
C1623       C  0.12797704  0.01435782  0.35985529    -0.02300
C1624       C  0.11996728  0.03061875  0.38651121     0.07300
C1625       C  0.11200226  0.01374535  0.41311879    -0.02500
C1626       C  0.10968751  0.98143693  0.41230316    -0.02500
C1627       C  0.11542786  0.96523664  0.38474728     0.07500
C1628       C  0.12378054  0.98244443  0.35824905    -0.02700
Br1629     Br  0.12883281  0.96411547  0.31822701    -0.01200
Br1630     Br  0.14842799  0.03483745  0.32608555    -0.01300
Br1631     Br  0.09644863  0.96065398  0.44929681    -0.01200
Br1632     Br  0.10476532  0.03401243  0.45166549    -0.01200
loop_ 
_geom_bond_atom_site_label_1 
_geom_bond_atom_site_label_2 
_geom_bond_distance 
_geom_bond_site_symmetry_2 
_ccdc_geom_bond_type 
O1           Ni9   1.926       .  S
O1           C11   1.281       .  A
O2           Ni9   1.920       .  S
O2           C12   1.281       .  A
O3           Ni9   1.925       .  S
O3           C13   1.284       .  A
O4           Ni9   1.919       .  S
O4           C14   1.281       .  A
O5          Ni10   1.910       .  S
O5           C14   1.279       .  A
O6          Ni10   1.914       .  S
O6           C13   1.278       .  A
O7          Ni10   1.924       .  S
O7           C12   1.282       .  A
O8          Ni10   1.924       .  S
O8           C11   1.283       .  A
Ni9         Ni10   2.379       .  S
C11        C1614   1.486       .  S
C12        C1594   1.481       .  S
C13        C1604   1.499       .  S
C14        C1624   1.497       .  S
O15         Ni23   1.915       .  S
O15          C25   1.280       .  A
O16         Ni23   1.924       .  S
O16          C26   1.283       .  A
O17         Ni23   1.908       .  S
O17          C27   1.279       .  A
O18         Ni23   1.906       .  S
O18          C28   1.278       .  A
O19         Ni24   1.922       .  S
O19          C28   1.280       .  A
O20         Ni24   1.919       .  S
O20          C27   1.282       .  A
O21         Ni24   1.921       .  S
O21          C26   1.281       .  A
O22         Ni24   1.925       .  S
O22          C25   1.282       .  A
Ni23        Ni24   2.383       .  S
C25        C1587   1.484       .  S
C26        C1574   1.484       .  S
C27        C1564   1.472       .  S
C28        C1627   1.505       .  S
O29         Ni37   1.916       .  S
O29          C39   1.281       .  A
O30         Ni37   1.922       .  S
O30          C40   1.281       .  A
O31         Ni37   1.923       .  S
O31          C41   1.282       .  A
O32         Ni37   1.920       .  S
O32          C42   1.282       .  A
O33         Ni38   1.919       .  S
O33          C42   1.281       .  A
O34         Ni38   1.923       .  S
O34          C41   1.282       .  A
O35         Ni38   1.923       .  S
O35          C40   1.283       .  A
O36         Ni38   1.924       .  S
O36          C39   1.282       .  A
Ni37        Ni38   2.387       .  S
C39        C1534   1.484       .  S
C40        C1554   1.489       .  S
C41        C1544   1.488       .  S
C42        C1617   1.480       .  S
O43         Ni51   1.923       .  S
O43          C53   1.283       .  A
O44         Ni51   1.930       .  S
O44          C54   1.283       .  A
O45         Ni51   1.921       .  S
O45          C55   1.281       .  A
O46         Ni51   1.925       .  S
O46          C56   1.282       .  A
O47         Ni52   1.919       .  S
O47          C56   1.281       .  A
O48         Ni52   1.928       .  S
O48          C55   1.283       .  A
O49         Ni52   1.910       .  S
O49          C54   1.278       .  A
O50         Ni52   1.908       .  S
O50          C53   1.279       .  A
Ni51        Ni52   2.381       .  S
C53        C1584   1.478       .  S
C54        C1514   1.504       .  S
C55        C1557   1.493       .  S
C56        C1524   1.490       .  S
O57         Ni65   1.916       .  S
O57          C67   1.281       .  A
O58         Ni65   1.919       .  S
O58          C68   1.281       .  A
O59         Ni65   1.930       .  S
O59          C69   1.284       .  A
O60         Ni65   1.929       .  S
O60          C70   1.284       .  A
O61         Ni66   1.920       .  S
O61          C70   1.281       .  A
O62         Ni66   1.920       .  S
O62          C69   1.281       .  A
O63         Ni66   1.919       .  S
O63          C68   1.281       .  A
O64         Ni66   1.917       .  S
O64          C67   1.281       .  A
Ni65        Ni66   2.388       .  S
C67        C1494   1.477       .  S
C68        C1607   1.479       .  S
C69        C1504   1.490       .  S
C70        C1484   1.489       .  S
O71         Ni79   1.930       .  S
O71          C81   1.284       .  A
O72         Ni79   1.928       .  S
O72          C82   1.283       .  A
O73         Ni79   1.916       .  S
O73          C83   1.281       .  A
O74         Ni79   1.920       .  S
O74          C84   1.281       .  A
O75         Ni80   1.921       .  S
O75          C84   1.282       .  A
O76         Ni80   1.920       .  S
O76          C83   1.282       .  A
O77         Ni80   1.919       .  S
O77          C82   1.281       .  A
O78         Ni80   1.916       .  S
O78          C81   1.280       .  A
Ni79        Ni80   2.386       .  S
C81        C1464   1.490       .  S
C82        C1507   1.489       .  S
C83        C1474   1.485       .  S
C84        C1454   1.482       .  S
O85         Ni93   1.906       .  S
O85          C95   1.276       .  A
O86         Ni93   1.909       .  S
O86          C96   1.279       .  A
O87         Ni93   1.929       .  S
O87          C97   1.284       .  A
O88         Ni93   1.925       .  S
O88          C98   1.283       .  A
O89         Ni94   1.921       .  S
O89          C98   1.281       .  A
O90         Ni94   1.914       .  S
O90          C97   1.279       .  A
O91         Ni94   1.923       .  S
O91          C96   1.283       .  A
O92         Ni94   1.928       .  S
O92          C95   1.283       .  A
Ni93        Ni94   2.383       .  S
C95        C1567   1.502       .  S
C96        C1497   1.478       .  S
C97        C1444   1.481       .  S
C98        C1434   1.492       .  S
O99        Ni107   1.919       .  S
O99         C109   1.282       .  A
O100       Ni107   1.921       .  S
O100        C110   1.282       .  A
O101       Ni107   1.919       .  S
O101        C111   1.282       .  A
O102       Ni107   1.918       .  S
O102        C112   1.281       .  A
O103       Ni108   1.919       .  S
O103        C112   1.282       .  A
O104       Ni108   1.927       .  S
O104        C111   1.283       .  A
O105       Ni108   1.913       .  S
O105        C110   1.280       .  A
O106       Ni108   1.918       .  S
O106        C109   1.280       .  A
Ni107      Ni108   2.388       .  S
C109       C1427   1.479       .  S
C110       C1477   1.484       .  S
C111       C1417   1.490       .  S
C112       C1447   1.478       .  S
O113       Ni121   1.924       .  S
O113        C123   1.283       .  A
O114       Ni121   1.928       .  S
O114        C124   1.283       .  A
O115       Ni121   1.919       .  S
O115        C125   1.281       .  A
O116       Ni121   1.915       .  S
O116        C126   1.278       .  A
O117       Ni122   1.932       .  S
O117        C126   1.285       .  A
O118       Ni122   1.932       .  S
O118        C125   1.284       .  A
O119       Ni122   1.917       .  S
O119        C124   1.279       .  A
O120       Ni122   1.922       .  S
O120        C123   1.281       .  A
Ni121      Ni122   2.380       .  S
C123       C1404   1.483       .  S
C124       C1387   1.511       .  S
C125       C1547   1.500       .  S
C126       C1394   1.484       .  S
O127       Ni135   1.924       .  S
O127        C137   1.282       .  A
O128       Ni135   1.925       .  S
O128        C138   1.282       .  A
O129       Ni135   1.920       .  S
O129        C139   1.281       .  A
O130       Ni135   1.920       .  S
O130        C140   1.282       .  A
O131       Ni136   1.923       .  S
O131        C140   1.282       .  A
O132       Ni136   1.919       .  S
O132        C139   1.282       .  A
O133       Ni136   1.921       .  S
O133        C138   1.281       .  A
O134       Ni136   1.919       .  S
O134        C137   1.281       .  A
Ni135      Ni136   2.387       .  S
C137       C1364   1.479       .  S
C138       C1407   1.481       .  S
C139       C1354   1.487       .  S
C140       C1377   1.490       .  S
O141       Ni149   1.928       .  S
O141        C151   1.283       .  A
O142       Ni149   1.915       .  S
O142        C152   1.280       .  A
O143       Ni149   1.924       .  S
O143        C153   1.282       .  A
O144       Ni149   1.920       .  S
O144        C154   1.282       .  A
O145       Ni150   1.925       .  S
O145        C154   1.281       .  A
O146       Ni150   1.921       .  S
O146        C153   1.282       .  A
O147       Ni150   1.930       .  S
O147        C152   1.283       .  A
O148       Ni150   1.923       .  S
O148        C151   1.282       .  A
Ni149      Ni150   2.380       .  S
C151       C1597   1.499       .  S
C152       C1397   1.481       .  S
C153       C1337   1.500       .  S
C154       C1344   1.500       .  S
O155       Ni163   1.924       .  S
O155        C165   1.282       .  A
O156       Ni163   1.931       .  S
O156        C166   1.284       .  A
O157       Ni163   1.924       .  S
O157        C167   1.283       .  A
O158       Ni163   1.924       .  S
O158        C168   1.281       .  A
O159       Ni164   1.925       .  S
O159        C168   1.283       .  A
O160       Ni164   1.932       .  S
O160        C167   1.283       .  A
O161       Ni164   1.920       .  S
O161        C166   1.280       .  A
O162       Ni164   1.929       .  S
O162        C165   1.283       .  A
Ni163      Ni164   2.380       .  S
C165       C1324   1.493       .  S
C166       C1374   1.491       .  S
C167       C1317   1.505       .  S
C168       C1347   1.503       .  S
O169       Ni177   1.911       .  S
O169        C179   1.280       .  A
O170       Ni177   1.915       .  S
O170        C180   1.280       .  A
O171       Ni177   1.920       .  S
O171        C181   1.282       .  A
O172       Ni177   1.921       .  S
O172        C182   1.282       .  A
O173       Ni178   1.920       .  S
O173        C182   1.281       .  A
O174       Ni178   1.923       .  S
O174        C181   1.281       .  A
O175       Ni178   1.928       .  S
O175        C180   1.284       .  A
O176       Ni178   1.926       .  S
O176        C179   1.283       .  A
Ni177      Ni178   2.388       .  S
C179       C1527   1.483       .  S
C180       C1294   1.486       .  S
C181       C1304   1.484       .  S
C182       C1284   1.482       .  S
O183       Ni191   1.922       .  S
O183        C193   1.282       .  A
O184       Ni191   1.918       .  S
O184        C194   1.282       .  A
O185       Ni191   1.919       .  S
O185        C195   1.281       .  A
O186       Ni191   1.916       .  S
O186        C196   1.281       .  A
O187       Ni192   1.925       .  S
O187        C196   1.283       .  A
O188       Ni192   1.925       .  S
O188        C195   1.283       .  A
O189       Ni192   1.918       .  S
O189        C194   1.281       .  A
O190       Ni192   1.920       .  S
O190        C193   1.281       .  A
Ni191      Ni192   2.388       .  S
C193       C1254   1.487       .  S
C194       C1274   1.481       .  S
C195       C1264   1.483       .  S
C196       C1307   1.483       .  S
O197       Ni205   1.912       .  S
O197        C207   1.279       .  A
O198       Ni205   1.913       .  S
O198        C208   1.279       .  A
O199       Ni205   1.931       .  S
O199        C209   1.284       .  A
O200       Ni205   1.927       .  S
O200        C210   1.284       .  A
O201       Ni206   1.916       .  S
O201        C210   1.280       .  A
O202       Ni206   1.917       .  S
O202        C209   1.280       .  A
O203       Ni206   1.931       .  S
O203        C208   1.284       .  A
O204       Ni206   1.926       .  S
O204        C207   1.284       .  A
Ni205      Ni206   2.386       .  S
C207       C1537   1.484       .  S
C208       C1297   1.486       .  S
C209       C1234   1.486       .  S
C210       C1244   1.488       .  S
O211       Ni219   1.927       .  S
O211        C221   1.283       .  A
O212       Ni219   1.927       .  S
O212        C222   1.283       .  A
O213       Ni219   1.917       .  S
O213        C223   1.281       .  A
O214       Ni219   1.917       .  S
O214        C224   1.281       .  A
O215       Ni220   1.920       .  S
O215        C224   1.282       .  A
O216       Ni220   1.916       .  S
O216        C223   1.281       .  A
O217       Ni220   1.916       .  S
O217        C222   1.281       .  A
O218       Ni220   1.919       .  S
O218        C221   1.281       .  A
Ni219      Ni220   2.387       .  S
C221       C1214   1.483       .  S
C222       C1247   1.486       .  S
C223       C1277   1.481       .  S
C224       C1224   1.485       .  S
O225       Ni233   1.913       .  S
O225        C235   1.279       .  A
O226       Ni233   1.917       .  S
O226        C236   1.280       .  A
O227       Ni233   1.923       .  S
O227        C237   1.282       .  A
O228       Ni233   1.915       .  S
O228        C238   1.280       .  A
O229       Ni234   1.917       .  S
O229        C238   1.281       .  A
O230       Ni234   1.913       .  S
O230        C237   1.279       .  A
O231       Ni234   1.925       .  S
O231        C236   1.284       .  A
O232       Ni234   1.931       .  S
O232        C235   1.283       .  A
Ni233      Ni234   2.383       .  S
C235       C1577   1.508       .  S
C236       C1194   1.486       .  S
C237       C1184   1.475       .  S
C238       C1204   1.482       .  S
O239       Ni247   1.920       .  S
O239        C249   1.280       .  A
O240       Ni247   1.915       .  S
O240        C250   1.281       .  A
O241       Ni247   1.928       .  S
O241        C251   1.283       .  A
O242       Ni247   1.916       .  S
O242        C252   1.281       .  A
O243       Ni248   1.923       .  S
O243        C252   1.281       .  A
O244       Ni248   1.919       .  S
O244        C251   1.281       .  A
O245       Ni248   1.930       .  S
O245        C250   1.283       .  A
O246       Ni248   1.927       .  S
O246        C249   1.284       .  A
Ni247      Ni248   2.383       .  S
C249       C1154   1.497       .  S
C250       C1177   1.499       .  S
C251       C1164   1.488       .  S
C252       C1207   1.482       .  S
O253       Ni261   1.910       .  S
O253        C263   1.277       .  A
O254       Ni261   1.911       .  S
O254        C264   1.278       .  A
O255       Ni261   1.934       .  S
O255        C265   1.285       .  A
O256       Ni261   1.940       .  S
O256        C266   1.287       .  A
O257       Ni262   1.915       .  S
O257        C266   1.278       .  A
O258       Ni262   1.917       .  S
O258        C265   1.279       .  A
O259       Ni262   1.944       .  S
O259        C264   1.288       .  A
O260       Ni262   1.936       .  S
O260        C263   1.286       .  A
Ni261      Ni262   2.379       .  S
C263       C1124   1.505       .  S
C264       C1144   1.495       .  S
C265       C1134   1.484       .  S
C266       C1174   1.508       .  S
O267       Ni275   1.931       .  S
O267        C277   1.284       .  A
O268       Ni275   1.925       .  S
O268        C278   1.283       .  A
O269       Ni275   1.913       .  S
O269        C279   1.279       .  A
O270       Ni275   1.916       .  S
O270        C280   1.280       .  A
O271       Ni276   1.921       .  S
O271        C280   1.282       .  A
O272       Ni276   1.919       .  S
O272        C279   1.282       .  A
O273       Ni276   1.919       .  S
O273        C278   1.281       .  A
O274       Ni276   1.922       .  S
O274        C277   1.282       .  A
Ni275      Ni276   2.388       .  S
C277       C1147   1.493       .  S
C278       C1114   1.488       .  S
C279       C1517   1.473       .  S
C280       C1197   1.481       .  S
O281       Ni289   1.909       .  S
O281        C291   1.278       .  A
O282       Ni289   1.912       .  S
O282        C292   1.280       .  A
O283       Ni289   1.929       .  S
O283        C293   1.283       .  A
O284       Ni289   1.923       .  S
O284        C294   1.282       .  A
O285       Ni290   1.923       .  S
O285        C294   1.281       .  A
O286       Ni290   1.933       .  S
O286        C293   1.283       .  A
O287       Ni290   1.931       .  S
O287        C292   1.283       .  A
O288       Ni290   1.931       .  S
O288        C291   1.285       .  A
Ni289      Ni290   2.380       .  S
C291       C1424   1.498       .  S
C292       C1104   1.499       .  S
C293       C1094   1.490       .  S
C294       C1157   1.484       .  S
O295       Ni303   1.923       .  S
O295        C305   1.281       .  A
O296       Ni303   1.919       .  S
O296        C306   1.281       .  A
O297       Ni303   1.919       .  S
O297        C307   1.280       .  A
O298       Ni303   1.919       .  S
O298        C308   1.282       .  A
O299       Ni304   1.926       .  S
O299        C308   1.282       .  A
O300       Ni304   1.927       .  S
O300        C307   1.284       .  A
O301       Ni304   1.928       .  S
O301        C306   1.283       .  A
O302       Ni304   1.934       .  S
O302        C305   1.284       .  A
Ni303      Ni304   2.378       .  S
C305       C1084   1.488       .  S
C306       C1327   1.486       .  S
C307       C1457   1.502       .  S
C308       C1107   1.502       .  S
O309       Ni317   1.924       .  S
O309        C319   1.282       .  A
O310       Ni317   1.925       .  S
O310        C320   1.282       .  A
O311       Ni317   1.919       .  S
O311        C321   1.282       .  A
O312       Ni317   1.927       .  S
O312        C322   1.282       .  A
O313       Ni318   1.920       .  S
O313        C322   1.282       .  A
O314       Ni318   1.921       .  S
O314        C321   1.282       .  A
O315       Ni318   1.917       .  S
O315        C320   1.281       .  A
O316       Ni318   1.915       .  S
O316        C319   1.281       .  A
Ni317      Ni318   2.387       .  S
C319       C1357   1.486       .  S
C320       C1087   1.481       .  S
C321       C1227   1.483       .  S
C322       C1074   1.488       .  S
O323       Ni331   1.929       .  S
O323        C333   1.283       .  A
O324       Ni331   1.928       .  S
O324        C334   1.283       .  A
O325       Ni331   1.927       .  S
O325        C335   1.283       .  A
O326       Ni331   1.923       .  S
O326        C336   1.282       .  A
O327       Ni332   1.928       .  S
O327        C336   1.283       .  A
O328       Ni332   1.926       .  S
O328        C335   1.282       .  A
O329       Ni332   1.928       .  S
O329        C334   1.281       .  A
O330       Ni332   1.926       .  S
O330        C333   1.282       .  A
Ni331      Ni332   2.379       .  S
C333       C1097   1.488       .  S
C334       C1137   1.517       .  S
C335       C1077   1.494       .  S
C336       C1257   1.493       .  S
O337       Ni345   1.930       .  S
O337        C347   1.283       .  A
O338       Ni345   1.927       .  S
O338        C348   1.284       .  A
O339       Ni345   1.922       .  S
O339        C349   1.282       .  A
O340       Ni345   1.920       .  S
O340        C350   1.281       .  A
O341       Ni346   1.923       .  S
O341        C350   1.283       .  A
O342       Ni346   1.930       .  S
O342        C349   1.284       .  A
O343       Ni346   1.919       .  S
O343        C348   1.280       .  A
O344       Ni346   1.917       .  S
O344        C347   1.281       .  A
Ni345      Ni346   2.386       .  S
C347       C1044   1.490       .  S
C348       C1054   1.486       .  S
C349       C1064   1.493       .  S
C350       C1334   1.483       .  S
O351       Ni359   1.929       .  S
O351        C361   1.283       .  A
O352       Ni359   1.925       .  S
O352        C362   1.283       .  A
O353       Ni359   1.913       .  S
O353        C363   1.280       .  A
O354       Ni359   1.911       .  S
O354        C364   1.280       .  A
O355       Ni360   1.922       .  S
O355        C364   1.282       .  A
O356       Ni360   1.920       .  S
O356        C363   1.282       .  A
O357       Ni360   1.926       .  S
O357        C362   1.283       .  A
O358       Ni360   1.926       .  S
O358        C361   1.283       .  A
Ni359      Ni360   2.387       .  S
C361       C1067   1.494       .  S
C362       C1314   1.489       .  S
C363       C1034   1.477       .  S
C364       C1024   1.480       .  S
O365       Ni373   1.913       .  S
O365        C375   1.279       .  A
O366       Ni373   1.921       .  S
O366        C376   1.281       .  A
O367       Ni373   1.927       .  S
O367        C377   1.285       .  A
O368       Ni373   1.930       .  S
O368        C378   1.284       .  A
O369       Ni374   1.914       .  S
O369        C378   1.280       .  A
O370       Ni374   1.910       .  S
O370        C377   1.275       .  A
O371       Ni374   1.917       .  S
O371        C376   1.281       .  A
O372       Ni374   1.930       .  S
O372        C375   1.283       .  A
Ni373      Ni374   2.381       .  S
C375       C1004   1.479       .  S
C376       C1037   1.479       .  S
C377       C1014   1.510       .  S
C378       C1167   1.492       .  S
O379       Ni387   1.912       .  S
O379        C389   1.281       .  A
O380       Ni387   1.913       .  S
O380        C390   1.280       .  A
O381       Ni387   1.926       .  S
O381        C391   1.282       .  A
O382       Ni387   1.924       .  S
O382        C392   1.282       .  A
O383       Ni388   1.921       .  S
O383        C392   1.281       .  A
O384       Ni388   1.922       .  S
O384        C391   1.282       .  A
O385       Ni388   1.921       .  S
O385        C390   1.280       .  A
O386       Ni388   1.922       .  S
O386        C389   1.278       .  A
Ni387      Ni388   2.374       .  S
C389       C1017   1.511       .  S
C390       C1187   1.504       .  S
C391       C1057   1.488       .  S
C392        C994   1.484       .  S
O393       Ni401   1.926       .  S
O393        C403   1.282       .  A
O394       Ni401   1.925       .  S
O394        C404   1.283       .  A
O395       Ni401   1.930       .  S
O395        C405   1.283       .  A
O396       Ni401   1.921       .  S
O396        C406   1.281       .  A
O397       Ni402   1.923       .  S
O397        C406   1.281       .  A
O398       Ni402   1.912       .  S
O398        C405   1.278       .  A
O399       Ni402   1.921       .  S
O399        C404   1.281       .  A
O400       Ni402   1.923       .  S
O400        C403   1.283       .  A
Ni401      Ni402   2.382       .  S
C403       C1237   1.502       .  S
C404        C987   1.504       .  S
C405        C974   1.478       .  S
C406        C964   1.482       .  S
O407       Ni415   1.924       .  S
O407        C417   1.282       .  A
O408       Ni415   1.915       .  S
O408        C418   1.279       .  A
O409       Ni415   1.920       .  S
O409        C419   1.280       .  A
O410       Ni415   1.921       .  S
O410        C420   1.282       .  A
O411       Ni416   1.925       .  S
O411        C420   1.282       .  A
O412       Ni416   1.928       .  S
O412        C419   1.283       .  A
O413       Ni416   1.926       .  S
O413        C418   1.282       .  A
O414       Ni416   1.914       .  S
O414        C417   1.279       .  A
Ni415      Ni416   2.381       .  S
C417        C954   1.478       .  S
C418        C944   1.477       .  S
C419       C1217   1.507       .  S
C420        C984   1.503       .  S
O421       Ni429   1.926       .  S
O421        C431   1.283       .  A
O422       Ni429   1.929       .  S
O422        C432   1.284       .  A
O423       Ni429   1.913       .  S
O423        C433   1.279       .  A
O424       Ni429   1.914       .  S
O424        C434   1.279       .  A
O425       Ni430   1.922       .  S
O425        C434   1.282       .  A
O426       Ni430   1.922       .  S
O426        C433   1.282       .  A
O427       Ni430   1.918       .  S
O427        C432   1.280       .  A
O428       Ni430   1.911       .  S
O428        C431   1.280       .  A
Ni429      Ni430   2.387       .  S
C431        C934   1.487       .  S
C432       C1487   1.496       .  S
C433        C977   1.474       .  S
C434        C924   1.475       .  S
O435       Ni443   1.912       .  S
O435        C445   1.279       .  A
O436       Ni443   1.909       .  S
O436        C446   1.279       .  A
O437       Ni443   1.922       .  S
O437        C447   1.283       .  A
O438       Ni443   1.926       .  S
O438        C448   1.283       .  A
O439       Ni444   1.916       .  S
O439        C448   1.281       .  A
O440       Ni444   1.913       .  S
O440        C447   1.280       .  A
O441       Ni444   1.922       .  S
O441        C446   1.282       .  A
O442       Ni444   1.922       .  S
O442        C445   1.282       .  A
Ni443      Ni444   2.388       .  S
C445        C917   1.477       .  S
C446        C957   1.475       .  S
C447        C937   1.486       .  S
C448       C1467   1.486       .  S
O449       Ni457   1.922       .  S
O449        C459   1.280       .  A
O450       Ni457   1.919       .  S
O450        C460   1.281       .  A
O451       Ni457   1.926       .  S
O451        C461   1.283       .  A
O452       Ni457   1.928       .  S
O452        C462   1.284       .  A
O453       Ni458   1.916       .  S
O453        C462   1.279       .  A
O454       Ni458   1.922       .  S
O454        C461   1.281       .  A
O455       Ni458   1.922       .  S
O455        C460   1.282       .  A
O456       Ni458   1.933       .  S
O456        C459   1.284       .  A
Ni457      Ni458   2.381       .  S
C459        C884   1.512       .  S
C460        C894   1.481       .  S
C461       C1117   1.497       .  S
C462        C904   1.484       .  S
O463       Ni471   1.921       .  S
O463        C473   1.282       .  A
O464       Ni471   1.917       .  S
O464        C474   1.281       .  A
O465       Ni471   1.916       .  S
O465        C475   1.281       .  A
O466       Ni471   1.921       .  S
O466        C476   1.281       .  A
O467       Ni472   1.918       .  S
O467        C476   1.282       .  A
O468       Ni472   1.919       .  S
O468        C475   1.281       .  A
O469       Ni472   1.918       .  S
O469        C474   1.281       .  A
O470       Ni472   1.922       .  S
O470        C473   1.282       .  A
Ni471      Ni472   2.389       .  S
C473        C864   1.487       .  S
C474        C874   1.477       .  S
C475        C907   1.480       .  S
C476       C1127   1.481       .  S
O477       Ni485   1.931       .  S
O477        C487   1.283       .  A
O478       Ni485   1.920       .  S
O478        C488   1.281       .  A
O479       Ni485   1.924       .  S
O479        C489   1.281       .  A
O480       Ni485   1.925       .  S
O480        C490   1.283       .  A
O481       Ni486   1.917       .  S
O481        C490   1.281       .  A
O482       Ni486   1.923       .  S
O482        C489   1.281       .  A
O483       Ni486   1.923       .  S
O483        C488   1.282       .  A
O484       Ni486   1.916       .  S
O484        C487   1.279       .  A
Ni485      Ni486   2.376       .  S
C487        C847   1.507       .  S
C488        C877   1.481       .  S
C489       C1367   1.508       .  S
C490        C854   1.492       .  S
O491       Ni499   1.917       .  S
O491        C501   1.281       .  A
O492       Ni499   1.914       .  S
O492        C502   1.281       .  A
O493       Ni499   1.915       .  S
O493        C503   1.280       .  A
O494       Ni499   1.916       .  S
O494        C504   1.281       .  A
O495       Ni500   1.928       .  S
O495        C504   1.283       .  A
O496       Ni500   1.926       .  S
O496        C503   1.283       .  A
O497       Ni500   1.922       .  S
O497        C502   1.281       .  A
O498       Ni500   1.918       .  S
O498        C501   1.281       .  A
Ni499      Ni500   2.389       .  S
C501        C834   1.476       .  S
C502        C897   1.478       .  S
C503        C857   1.488       .  S
C504       C1384   1.484       .  S
O505       Ni513   1.924       .  S
O505        C515   1.283       .  A
O506       Ni513   1.923       .  S
O506        C516   1.282       .  A
O507       Ni513   1.920       .  S
O507        C517   1.282       .  A
O508       Ni513   1.918       .  S
O508        C518   1.281       .  A
O509       Ni514   1.919       .  S
O509        C518   1.281       .  A
O510       Ni514   1.917       .  S
O510        C517   1.281       .  A
O511       Ni514   1.922       .  S
O511        C516   1.283       .  A
O512       Ni514   1.924       .  S
O512        C515   1.282       .  A
Ni513      Ni514   2.387       .  S
C515        C824   1.489       .  S
C516       C1437   1.491       .  S
C517        C814   1.480       .  S
C518        C804   1.477       .  S
O519       Ni527   1.920       .  S
O519        C529   1.282       .  A
O520       Ni527   1.918       .  S
O520        C530   1.280       .  A
O521       Ni527   1.936       .  S
O521        C531   1.284       .  A
O522       Ni527   1.927       .  S
O522        C532   1.283       .  A
O523       Ni528   1.928       .  S
O523        C532   1.283       .  A
O524       Ni528   1.919       .  S
O524        C531   1.281       .  A
O525       Ni528   1.917       .  S
O525        C530   1.280       .  A
O526       Ni528   1.914       .  S
O526        C529   1.280       .  A
Ni527      Ni528   2.380       .  S
C529        C784   1.482       .  S
C530        C794   1.506       .  S
C531        C827   1.491       .  S
C532       C1414   1.498       .  S
O533       Ni541   1.920       .  S
O533        C543   1.282       .  A
O534       Ni541   1.936       .  S
O534        C544   1.285       .  A
O535       Ni541   1.922       .  S
O535        C545   1.281       .  A
O536       Ni541   1.913       .  S
O536        C546   1.279       .  A
O537       Ni542   1.936       .  S
O537        C546   1.286       .  A
O538       Ni542   1.926       .  S
O538        C545   1.283       .  A
O539       Ni542   1.905       .  S
O539        C544   1.278       .  A
O540       Ni542   1.911       .  S
O540        C543   1.277       .  A
Ni541      Ni542   2.377       .  S
C543        C797   1.499       .  S
C544        C764   1.488       .  S
C545       C1267   1.500       .  S
C546        C774   1.499       .  S
O547       Ni555   1.921       .  S
O547        C557   1.283       .  A
O548       Ni555   1.927       .  S
O548        C558   1.283       .  A
O549       Ni555   1.914       .  S
O549        C559   1.279       .  A
O550       Ni555   1.922       .  S
O550        C560   1.282       .  A
O551       Ni556   1.924       .  S
O551        C560   1.283       .  A
O552       Ni556   1.931       .  S
O552        C559   1.284       .  A
O553       Ni556   1.927       .  S
O553        C558   1.283       .  A
O554       Ni556   1.923       .  S
O554        C557   1.281       .  A
Ni555      Ni556   2.382       .  S
C557       C1287   1.497       .  S
C558        C777   1.503       .  S
C559        C817   1.482       .  S
C560        C754   1.490       .  S
O561       Ni569   1.918       .  S
O561        C571   1.280       .  A
O562       Ni569   1.912       .  S
O562        C572   1.278       .  A
O563       Ni569   1.924       .  S
O563        C573   1.283       .  A
O564       Ni569   1.927       .  S
O564        C574   1.283       .  A
O565       Ni570   1.911       .  S
O565        C574   1.278       .  A
O566       Ni570   1.921       .  S
O566        C573   1.281       .  A
O567       Ni570   1.928       .  S
O567        C572   1.283       .  A
O568       Ni570   1.923       .  S
O568        C571   1.283       .  A
Ni569      Ni570   2.382       .  S
C571        C734   1.484       .  S
C572        C927   1.507       .  S
C573       C1047   1.492       .  S
C574        C744   1.476       .  S
O575       Ni583   1.917       .  S
O575        C585   1.280       .  A
O576       Ni583   1.910       .  S
O576        C586   1.278       .  A
O577       Ni583   1.931       .  S
O577        C587   1.284       .  A
O578       Ni583   1.924       .  S
O578        C588   1.283       .  A
O579       Ni584   1.917       .  S
O579        C588   1.280       .  A
O580       Ni584   1.909       .  S
O580        C587   1.277       .  A
O581       Ni584   1.925       .  S
O581        C586   1.283       .  A
O582       Ni584   1.917       .  S
O582        C585   1.281       .  A
Ni583      Ni584   2.381       .  S
C585        C997   1.494       .  S
C586        C747   1.474       .  S
C587        C807   1.505       .  S
C588        C724   1.487       .  S
O589       Ni597   1.913       .  S
O589        C599   1.281       .  A
O590       Ni597   1.914       .  S
O590        C600   1.280       .  A
O591       Ni597   1.922       .  S
O591        C601   1.281       .  A
O592       Ni597   1.920       .  S
O592        C602   1.282       .  A
O593       Ni598   1.926       .  S
O593        C602   1.282       .  A
O594       Ni598   1.925       .  S
O594        C601   1.282       .  A
O595       Ni598   1.927       .  S
O595        C600   1.283       .  A
O596       Ni598   1.928       .  S
O596        C599   1.283       .  A
Ni597      Ni598   2.387       .  S
C599        C757   1.485       .  S
C600        C727   1.487       .  S
C601        C887   1.483       .  S
C602        C717   1.483       .  S
O603       Ni611   1.923       .  S
O603        C613   1.281       .  A
O604       Ni611   1.921       .  S
O604        C614   1.281       .  A
O605       Ni611   1.923       .  S
O605        C615   1.282       .  A
O606       Ni611   1.917       .  S
O606        C616   1.281       .  A
O607       Ni612   1.925       .  S
O607        C616   1.282       .  A
O608       Ni612   1.917       .  S
O608        C615   1.279       .  A
O609       Ni612   1.928       .  S
O609        C614   1.283       .  A
O610       Ni612   1.922       .  S
O610        C613   1.282       .  A
Ni611      Ni612   2.380       .  S
C613        C967   1.500       .  S
C614        C737   1.487       .  S
C615        C837   1.505       .  S
C616        C714   1.482       .  S
O617       Ni625   1.908       .  S
O617        C627   1.277       .  A
O618       Ni625   1.912       .  S
O618        C628   1.279       .  A
O619       Ni625   1.918       .  S
O619        C629   1.282       .  A
O620       Ni625   1.930       .  S
O620        C630   1.283       .  A
O621       Ni626   1.916       .  S
O621        C630   1.280       .  A
O622       Ni626   1.920       .  S
O622        C629   1.281       .  A
O623       Ni626   1.930       .  S
O623        C628   1.284       .  A
O624       Ni626   1.935       .  S
O624        C627   1.285       .  A
Ni625      Ni626   2.381       .  S
C627       C1007   1.509       .  S
C628        C697   1.487       .  S
C629        C787   1.486       .  S
C630        C704   1.483       .  S
O631       Ni639   1.921       .  S
O631        C641   1.282       .  A
O632       Ni639   1.920       .  S
O632        C642   1.282       .  A
O633       Ni639   1.920       .  S
O633        C643   1.282       .  A
O634       Ni639   1.920       .  S
O634        C644   1.282       .  A
O635       Ni640   1.915       .  S
O635        C644   1.281       .  A
O636       Ni640   1.921       .  S
O636        C643   1.282       .  A
O637       Ni640   1.918       .  S
O637        C642   1.281       .  A
O638       Ni640   1.917       .  S
O638        C641   1.281       .  A
Ni639      Ni640   2.387       .  S
C641        C767   1.485       .  S
C642        C707   1.479       .  S
C643        C867   1.487       .  S
C644        C684   1.481       .  S
O645       Ni653   1.922       .  S
O645        C655   1.281       .  A
O646       Ni653   1.922       .  S
O646        C656   1.282       .  A
O647       Ni653   1.916       .  S
O647        C657   1.279       .  A
O648       Ni653   1.920       .  S
O648        C658   1.281       .  A
O649       Ni654   1.932       .  S
O649        C658   1.283       .  A
O650       Ni654   1.926       .  S
O650        C657   1.283       .  A
O651       Ni654   1.919       .  S
O651        C656   1.280       .  A
O652       Ni654   1.921       .  S
O652        C655   1.281       .  A
Ni653      Ni654   2.379       .  S
C655        C947   1.507       .  S
C656        C674   1.500       .  S
C657        C844   1.479       .  S
C658        C687   1.492       .  S
O659       Ni667   1.920       .  S
O659        C669   1.281       .  A
O660       Ni667   1.931       .  S
O660        C670   1.284       .  A
O661       Ni667   1.918       .  S
O661        C671   1.280       .  A
O662       Ni667   1.917       .  S
O662        C672   1.282       .  A
O663       Ni668   1.927       .  S
O663        C672   1.282       .  A
O664       Ni668   1.922       .  S
O664        C671   1.282       .  A
O665       Ni668   1.917       .  S
O665        C670   1.281       .  A
O666       Ni668   1.924       .  S
O666        C669   1.282       .  A
Ni667      Ni668   2.381       .  S
C669       C1027   1.487       .  S
C670        C694   1.490       .  S
C671        C677   1.498       .  S
C672        C914   1.495       .  S
C673        C674   1.417       .  A
C673        C678   1.411       .  A
C673       Br680   1.938       .  S
C674        C675   1.419       .  A
C675        C676   1.412       .  A
C675       Br682   1.934       .  S
C676        C677   1.418       .  A
C676       Br681   1.934       .  S
C677        C678   1.417       .  A
C678       Br679   1.938       .  S
C683        C684   1.410       .  A
C683        C688   1.411       .  A
C683       Br690   1.935       .  S
C684        C685   1.411       .  A
C685        C686   1.409       .  A
C685       Br692   1.934       .  S
C686        C687   1.414       .  A
C686       Br691   1.928       .  S
C687        C688   1.414       .  A
C688       Br689   1.920       .  S
C693        C694   1.414       .  A
C693        C698   1.412       .  A
C693       Br700   1.933       .  S
C694        C695   1.412       .  A
C695        C696   1.410       .  A
C695       Br702   1.924       .  S
C696        C697   1.413       .  A
C696       Br701   1.934       .  S
C697        C698   1.413       .  A
C698       Br699   1.932       .  S
C703        C704   1.412       .  A
C703        C708   1.410       .  A
C703       Br710   1.931       .  S
C704        C705   1.411       .  A
C705        C706   1.409       .  A
C705       Br712   1.925       .  S
C706        C707   1.410       .  A
C706       Br711   1.932       .  S
C707        C708   1.411       .  A
C708       Br709   1.931       .  S
C713        C714   1.411       .  A
C713        C718   1.410       .  A
C713       Br720   1.933       .  S
C714        C715   1.411       .  A
C715        C716   1.410       .  A
C715       Br722   1.930       .  S
C716        C717   1.412       .  A
C716       Br721   1.931       .  S
C717        C718   1.412       .  A
C718       Br719   1.930       .  S
C723        C724   1.413       .  A
C723        C728   1.409       .  A
C723       Br730   1.934       .  S
C724        C725   1.415       .  A
C725        C726   1.412       .  A
C725       Br732   1.933       .  S
C726        C727   1.414       .  A
C726       Br731   1.934       .  S
C727        C728   1.414       .  A
C728       Br729   1.934       .  S
C733        C734   1.414       .  A
C733        C738   1.412       .  A
C733       Br740   1.931       .  S
C734        C735   1.410       .  A
C735        C736   1.408       .  A
C735       Br742   1.934       .  S
C736        C737   1.411       .  A
C736       Br741   1.923       .  S
C737        C738   1.413       .  A
C738       Br739   1.932       .  S
C743        C744   1.411       .  A
C743        C748   1.407       .  A
C743       Br750   1.930       .  S
C744        C745   1.410       .  A
C745        C746   1.407       .  A
C745       Br752   1.926       .  S
C746        C747   1.407       .  A
C746       Br751   1.926       .  S
C747        C748   1.409       .  A
C748       Br749   1.930       .  S
C753        C754   1.411       .  A
C753        C758   1.407       .  A
C753       Br760   1.923       .  S
C754        C755   1.416       .  A
C755        C756   1.413       .  A
C755       Br762   1.933       .  S
C756        C757   1.413       .  A
C756       Br761   1.931       .  S
C757        C758   1.412       .  A
C758       Br759   1.936       .  S
C763        C764   1.414       .  A
C763        C768   1.409       .  A
C763       Br770   1.935       .  S
C764        C765   1.411       .  A
C765        C766   1.410       .  A
C765       Br772   1.922       .  S
C766        C767   1.414       .  A
C766       Br771   1.935       .  S
C767        C768   1.412       .  A
C768       Br769   1.932       .  S
C773        C774   1.414       .  A
C773        C778   1.414   1_556  A
C773       Br780   1.931       .  S
C774        C775   1.418       .  A
C775        C776   1.413   1_556  A
C775       Br782   1.939       .  S
C776        C777   1.417       .  A
C776       Br781   1.928       .  S
C777        C778   1.418       .  A
C778       Br779   1.935       .  S
C783        C784   1.413       .  A
C783        C788   1.408       .  A
C783       Br790   1.934       .  S
C784        C785   1.412       .  A
C785        C786   1.410       .  A
C785       Br792   1.934       .  S
C786        C787   1.415       .  A
C786       Br791   1.930       .  S
C787        C788   1.413       .  A
C788       Br789   1.934       .  S
C793        C794   1.425       .  A
C793        C798   1.414   1_455  A
C793       Br800   1.941       .  S
C794        C795   1.423       .  A
C795        C796   1.408   1_455  A
C795       Br802   1.937       .  S
C796        C797   1.414       .  A
C796       Br801   1.941       .  S
C797        C798   1.420       .  A
C798       Br799   1.940       .  S
C803        C804   1.404       .  A
C803        C808   1.410       .  A
C803       Br810   1.936       .  S
C804        C805   1.405       .  A
C805        C806   1.411       .  A
C805       Br812   1.934       .  S
C806        C807   1.425       .  A
C806       Br811   1.933       .  S
C807        C808   1.429       .  A
C808       Br809   1.938       .  S
C813        C814   1.411       .  A
C813        C818   1.409   1_455  A
C813       Br820   1.933       .  S
C814        C815   1.411       .  A
C815        C816   1.410   1_455  A
C815       Br822   1.932       .  S
C816        C817   1.412       .  A
C816       Br821   1.931       .  S
C817        C818   1.409       .  A
C818       Br819   1.923       .  S
C823        C824   1.413       .  A
C823        C828   1.414   1_554  A
C823       Br830   1.933       .  S
C824        C825   1.413       .  A
C825        C826   1.410   1_554  A
C825       Br832   1.932       .  S
C826        C827   1.412       .  A
C826       Br831   1.932       .  S
C827        C828   1.414       .  A
C828       Br829   1.925       .  S
C833        C834   1.405       .  A
C833        C838   1.410       .  A
C833       Br840   1.935       .  S
C834        C835   1.404       .  A
C835        C836   1.410       .  A
C835       Br842   1.935       .  S
C836        C837   1.426       .  A
C836       Br841   1.932       .  S
C837        C838   1.427       .  A
C838       Br839   1.937       .  S
C843        C844   1.405       .  A
C843        C848   1.413       .  A
C843       Br850   1.935       .  S
C844        C845   1.404       .  A
C845        C846   1.411       .  A
C845       Br852   1.935       .  S
C846        C847   1.428       .  A
C846       Br851   1.936       .  S
C847        C848   1.425       .  A
C848       Br849   1.932       .  S
C853        C854   1.414       .  A
C853        C858   1.410   1_556  A
C853       Br860   1.929       .  S
C854        C855   1.418       .  A
C855        C856   1.412   1_556  A
C855       Br862   1.935       .  S
C856        C857   1.413       .  A
C856       Br861   1.934       .  S
C857        C858   1.414       .  A
C858       Br859   1.936       .  S
C863        C864   1.414       .  A
C863        C868   1.410       .  A
C863       Br870   1.934       .  S
C864        C865   1.414       .  A
C865        C866   1.411       .  A
C865       Br872   1.932       .  S
C866        C867   1.414       .  A
C866       Br871   1.934       .  S
C867        C868   1.413       .  A
C868       Br869   1.933       .  S
C873        C874   1.411       .  A
C873        C878   1.410   1_565  A
C873       Br880   1.931       .  S
C874        C875   1.410       .  A
C875        C876   1.406   1_565  A
C875       Br882   1.933       .  S
C876        C877   1.410       .  A
C876       Br881   1.923       .  S
C877        C878   1.412       .  A
C878       Br879   1.931       .  S
C883        C884   1.428       .  A
C883        C888   1.413       .  A
C883       Br890   1.935       .  S
C884        C885   1.425       .  A
C885        C886   1.413       .  A
C885       Br892   1.930       .  S
C886        C887   1.406       .  A
C886       Br891   1.934       .  S
C887        C888   1.405       .  A
C888       Br889   1.935       .  S
C893        C894   1.412       .  A
C893        C898   1.410   1_565  A
C893       Br900   1.931       .  S
C894        C895   1.412       .  A
C895        C896   1.408   1_565  A
C895       Br902   1.931       .  S
C896        C897   1.410       .  A
C896       Br901   1.933       .  S
C897        C898   1.411       .  A
C898       Br899   1.931       .  S
C903        C904   1.409       .  A
C903        C908   1.407   1_554  A
C903       Br910   1.923       .  S
C904        C905   1.414       .  A
C905        C906   1.411   1_554  A
C905       Br912   1.932       .  S
C906        C907   1.413       .  A
C906       Br911   1.933       .  S
C907        C908   1.410       .  A
C908       Br909   1.934       .  S
C913        C914   1.417       .  A
C913        C918   1.407       .  A
C913       Br920   1.934       .  S
C914        C915   1.419       .  A
C915        C916   1.412       .  A
C915       Br922   1.926       .  S
C916        C917   1.408       .  A
C916       Br921   1.934       .  S
C917        C918   1.407       .  A
C918       Br919   1.933       .  S
C923        C924   1.401       .  A
C923        C928   1.409       .  A
C923       Br930   1.936       .  S
C924        C925   1.405       .  A
C925        C926   1.412       .  A
C925       Br932   1.934       .  S
C926        C927   1.427       .  A
C926       Br931   1.936       .  S
C927        C928   1.431       .  A
C928       Br929   1.938       .  S
C933        C934   1.416       .  A
C933        C938   1.408   1_554  A
C933       Br940   1.936       .  S
C934        C935   1.413       .  A
C935        C936   1.411   1_554  A
C935       Br942   1.934       .  S
C936        C937   1.416       .  A
C936       Br941   1.935       .  S
C937        C938   1.412       .  A
C938       Br939   1.935       .  S
C943        C944   1.403       .  A
C943        C948   1.410       .  A
C943       Br950   1.934       .  S
C944        C945   1.404       .  A
C945        C946   1.412       .  A
C945       Br952   1.930       .  S
C946        C947   1.427       .  A
C946       Br951   1.935       .  S
C947        C948   1.427       .  A
C948       Br949   1.936       .  S
C953        C954   1.411       .  A
C953        C958   1.408   1_655  A
C953       Br960   1.933       .  S
C954        C955   1.410       .  A
C955        C956   1.407   1_655  A
C955       Br962   1.924       .  S
C956        C957   1.409       .  A
C956       Br961   1.932       .  S
C957        C958   1.412       .  A
C958       Br959   1.933       .  S
C963        C964   1.407       .  A
C963        C968   1.410       .  A
C963       Br970   1.935       .  S
C964        C965   1.407       .  A
C965        C966   1.411       .  A
C965       Br972   1.926       .  S
C966        C967   1.421       .  A
C966       Br971   1.934       .  S
C967        C968   1.422       .  A
C968       Br969   1.929       .  S
C973        C974   1.412       .  A
C973        C978   1.408   1_655  A
C973       Br980   1.930       .  S
C974        C975   1.409       .  A
C975        C976   1.408   1_655  A
C975       Br982   1.924       .  S
C976        C977   1.409       .  A
C976       Br981   1.931       .  S
C977        C978   1.409       .  A
C978       Br979   1.931       .  S
C983        C984   1.419       .  A
C983        C988   1.413   1_556  A
C983       Br990   1.938       .  S
C984        C985   1.420       .  A
C985        C986   1.415   1_556  A
C985       Br992   1.938       .  S
C986        C987   1.420       .  A
C986       Br991   1.936       .  S
C987        C988   1.418       .  A
C988       Br989   1.938       .  S
C993        C994   1.409       .  A
C993        C998   1.410       .  A
C993      Br1000   1.927       .  S
C994        C995   1.408       .  A
C995        C996   1.409       .  A
C995      Br1002   1.931       .  S
C996        C997   1.420       .  A
C996      Br1001   1.932       .  S
C997        C998   1.418       .  A
C998       Br999   1.936       .  S
C1003      C1004   1.403       .  A
C1003      C1008   1.410       .  A
C1003     Br1010   1.935       .  S
C1004      C1005   1.405       .  A
C1005      C1006   1.412       .  A
C1005     Br1012   1.930       .  S
C1006      C1007   1.426       .  A
C1006     Br1011   1.935       .  S
C1007      C1008   1.431       .  A
C1008     Br1009   1.938       .  S
C1013      C1014   1.420       .  A
C1013      C1018   1.415   1_556  A
C1013     Br1020   1.942       .  S
C1014      C1015   1.427       .  A
C1015      C1016   1.413   1_556  A
C1015     Br1022   1.946       .  S
C1016      C1017   1.423       .  A
C1016     Br1021   1.947       .  S
C1017      C1018   1.426       .  A
C1018     Br1019   1.943       .  S
C1023      C1024   1.410       .  A
C1023      C1028   1.405       .  A
C1023     Br1030   1.935       .  S
C1024      C1025   1.412       .  A
C1025      C1026   1.412       .  A
C1025     Br1032   1.932       .  S
C1026      C1027   1.416       .  A
C1026     Br1031   1.933       .  S
C1027      C1028   1.411       .  A
C1028     Br1029   1.921       .  S
C1033      C1034   1.411       .  A
C1033      C1038   1.408   1_545  A
C1033     Br1040   1.932       .  S
C1034      C1035   1.411       .  A
C1035      C1036   1.408   1_545  A
C1035     Br1042   1.933       .  S
C1036      C1037   1.411       .  A
C1036     Br1041   1.928       .  S
C1037      C1038   1.411       .  A
C1038     Br1039   1.932       .  S
C1043      C1044   1.414       .  A
C1043      C1048   1.411       .  A
C1043     Br1050   1.935       .  S
C1044      C1045   1.413       .  A
C1045      C1046   1.412       .  A
C1045     Br1052   1.930       .  S
C1046      C1047   1.414       .  A
C1046     Br1051   1.933       .  S
C1047      C1048   1.415       .  A
C1048     Br1049   1.931       .  S
C1053      C1054   1.415       .  A
C1053      C1058   1.413   1_545  A
C1053     Br1060   1.932       .  S
C1054      C1055   1.410       .  A
C1055      C1056   1.409   1_545  A
C1055     Br1062   1.932       .  S
C1056      C1057   1.413       .  A
C1056     Br1061   1.927       .  S
C1057      C1058   1.412       .  A
C1058     Br1059   1.930       .  S
C1063      C1064   1.413       .  A
C1063      C1068   1.414   1_554  A
C1063     Br1070   1.932       .  S
C1064      C1065   1.416       .  A
C1065      C1066   1.413   1_554  A
C1065     Br1072   1.934       .  S
C1066      C1067   1.413       .  A
C1066     Br1071   1.933       .  S
C1067      C1068   1.415       .  A
C1068     Br1069   1.931       .  S
C1073      C1074   1.412       .  A
C1073      C1078   1.415   1_545  A
C1073     Br1080   1.931       .  S
C1074      C1075   1.412       .  A
C1075      C1076   1.409   1_545  A
C1075     Br1082   1.935       .  S
C1076      C1077   1.413       .  A
C1076     Br1081   1.926       .  S
C1077      C1078   1.417       .  A
C1078     Br1079   1.932       .  S
C1083      C1084   1.412       .  A
C1083      C1088   1.412   1_455  A
C1083     Br1090   1.924       .  S
C1084      C1085   1.411       .  A
C1085      C1086   1.409   1_455  A
C1085     Br1092   1.920       .  S
C1086      C1087   1.409       .  A
C1086     Br1091   1.932       .  S
C1087      C1088   1.411       .  A
C1088     Br1089   1.931       .  S
C1093      C1094   1.411       .  A
C1093      C1098   1.412   1_455  A
C1093     Br1100   1.924       .  S
C1094      C1095   1.411       .  A
C1095      C1096   1.413   1_455  A
C1095     Br1102   1.926       .  S
C1096      C1097   1.412       .  A
C1096     Br1101   1.930       .  S
C1097      C1098   1.412       .  A
C1098     Br1099   1.930       .  S
C1103      C1104   1.417       .  A
C1103      C1108   1.409   1_565  A
C1103     Br1110   1.940       .  S
C1104      C1105   1.417       .  A
C1105      C1106   1.415   1_565  A
C1105     Br1112   1.933       .  S
C1106      C1107   1.421       .  A
C1106     Br1111   1.933       .  S
C1107      C1108   1.419       .  A
C1108     Br1109   1.939       .  S
C1113      C1114   1.414       .  A
C1113      C1118   1.412       .  A
C1113     Br1120   1.934       .  S
C1114      C1115   1.410       .  A
C1115      C1116   1.411       .  A
C1115     Br1122   1.935       .  S
C1116      C1117   1.418       .  A
C1116     Br1121   1.927       .  S
C1117      C1118   1.417       .  A
C1118     Br1119   1.934       .  S
C1123      C1124   1.427       .  A
C1123      C1128   1.409       .  A
C1123     Br1130   1.934       .  S
C1124      C1125   1.422       .  A
C1125      C1126   1.413       .  A
C1125     Br1132   1.933       .  S
C1126      C1127   1.409       .  A
C1126     Br1131   1.933       .  S
C1127      C1128   1.406       .  A
C1128     Br1129   1.938       .  S
C1133      C1134   1.405       .  A
C1133      C1138   1.413       .  A
C1133     Br1140   1.935       .  S
C1134      C1135   1.404       .  A
C1135      C1136   1.415       .  A
C1135     Br1142   1.935       .  S
C1136      C1137   1.431       .  A
C1136     Br1141   1.935       .  S
C1137      C1138   1.429       .  A
C1138     Br1139   1.935       .  S
C1143      C1144   1.417       .  A
C1143      C1148   1.413       .  A
C1143     Br1150   1.935       .  S
C1144      C1145   1.412       .  A
C1145      C1146   1.413       .  A
C1145     Br1152   1.925       .  S
C1146      C1147   1.414       .  A
C1146     Br1151   1.933       .  S
C1147      C1148   1.413       .  A
C1148     Br1149   1.932       .  S
C1153      C1154   1.418       .  A
C1153      C1158   1.412       .  A
C1153     Br1160   1.935       .  S
C1154      C1155   1.418       .  A
C1155      C1156   1.411       .  A
C1155     Br1162   1.928       .  S
C1156      C1157   1.409       .  A
C1156     Br1161   1.934       .  S
C1157      C1158   1.410       .  A
C1158     Br1159   1.931       .  S
C1163      C1164   1.408       .  A
C1163      C1168   1.409       .  A
C1163     Br1170   1.924       .  S
C1164      C1165   1.413       .  A
C1165      C1166   1.413       .  A
C1165     Br1172   1.933       .  S
C1166      C1167   1.416       .  A
C1166     Br1171   1.933       .  S
C1167      C1168   1.417       .  A
C1168     Br1169   1.935       .  S
C1173      C1174   1.425       .  A
C1173      C1178   1.417       .  A
C1173     Br1180   1.936       .  S
C1174      C1175   1.417       .  A
C1175      C1176   1.411       .  A
C1175     Br1182   1.929       .  S
C1176      C1177   1.415       .  A
C1176     Br1181   1.938       .  S
C1177      C1178   1.415       .  A
C1178     Br1179   1.934       .  S
C1183      C1184   1.403       .  A
C1183      C1188   1.410       .  A
C1183     Br1190   1.934       .  S
C1184      C1185   1.402       .  A
C1185      C1186   1.409       .  A
C1185     Br1192   1.931       .  S
C1186      C1187   1.428       .  A
C1186     Br1191   1.939       .  S
C1187      C1188   1.428       .  A
C1188     Br1189   1.936       .  S
C1193      C1194   1.415       .  A
C1193      C1198   1.410       .  A
C1193     Br1200   1.932       .  S
C1194      C1195   1.414       .  A
C1195      C1196   1.410       .  A
C1195     Br1202   1.933       .  S
C1196      C1197   1.411       .  A
C1196     Br1201   1.932       .  S
C1197      C1198   1.411       .  A
C1198     Br1199   1.933       .  S
C1203      C1204   1.414       .  A
C1203      C1208   1.411       .  A
C1203     Br1210   1.934       .  S
C1204      C1205   1.410       .  A
C1205      C1206   1.406       .  A
C1205     Br1212   1.929       .  S
C1206      C1207   1.413       .  A
C1206     Br1211   1.933       .  S
C1207      C1208   1.411       .  A
C1208     Br1209   1.928       .  S
C1213      C1214   1.408       .  A
C1213      C1218   1.412       .  A
C1213     Br1220   1.934       .  S
C1214      C1215   1.406       .  A
C1215      C1216   1.413       .  A
C1215     Br1222   1.934       .  S
C1216      C1217   1.427       .  A
C1216     Br1221   1.935       .  S
C1217      C1218   1.424       .  A
C1218     Br1219   1.936       .  S
C1223      C1224   1.413       .  A
C1223      C1228   1.410       .  A
C1223     Br1230   1.933       .  S
C1224      C1225   1.415       .  A
C1225      C1226   1.409       .  A
C1225     Br1232   1.934       .  S
C1226      C1227   1.412       .  A
C1226     Br1231   1.933       .  S
C1227      C1228   1.412       .  A
C1228     Br1229   1.932       .  S
C1233      C1234   1.411       .  A
C1233      C1238   1.413       .  A
C1233     Br1240   1.935       .  S
C1234      C1235   1.408       .  A
C1235      C1236   1.411       .  A
C1235     Br1242   1.932       .  S
C1236      C1237   1.421       .  A
C1236     Br1241   1.935       .  S
C1237      C1238   1.421       .  A
C1238     Br1239   1.933       .  S
C1243      C1244   1.414       .  A
C1243      C1248   1.409       .  A
C1243     Br1250   1.934       .  S
C1244      C1245   1.416       .  A
C1245      C1246   1.413       .  A
C1245     Br1252   1.933       .  S
C1246      C1247   1.413       .  A
C1246     Br1251   1.932       .  S
C1247      C1248   1.412       .  A
C1248     Br1249   1.934       .  S
C1253      C1254   1.412       .  A
C1253      C1258   1.411       .  A
C1253     Br1260   1.934       .  S
C1254      C1255   1.413       .  A
C1255      C1256   1.412       .  A
C1255     Br1262   1.934       .  S
C1256      C1257   1.416       .  A
C1256     Br1261   1.933       .  S
C1257      C1258   1.415       .  A
C1258     Br1259   1.929       .  S
C1263      C1264   1.408       .  A
C1263      C1268   1.411       .  A
C1263     Br1270   1.935       .  S
C1264      C1265   1.408       .  A
C1265      C1266   1.412       .  A
C1265     Br1272   1.932       .  S
C1266      C1267   1.420       .  A
C1266     Br1271   1.934       .  S
C1267      C1268   1.421       .  A
C1268     Br1269   1.929       .  S
C1273      C1274   1.412       .  A
C1273      C1278   1.409       .  A
C1273     Br1280   1.932       .  S
C1274      C1275   1.412       .  A
C1275      C1276   1.408       .  A
C1275     Br1282   1.933       .  S
C1276      C1277   1.412       .  A
C1276     Br1281   1.934       .  S
C1277      C1278   1.413       .  A
C1278     Br1279   1.933       .  S
C1283      C1284   1.409       .  A
C1283      C1288   1.410       .  A
C1283     Br1290   1.932       .  S
C1284      C1285   1.411       .  A
C1285      C1286   1.412       .  A
C1285     Br1292   1.934       .  S
C1286      C1287   1.419       .  A
C1286     Br1291   1.931       .  S
C1287      C1288   1.419       .  A
C1288     Br1289   1.935       .  S
C1293      C1294   1.412       .  A
C1293      C1298   1.412       .  A
C1293     Br1300   1.931       .  S
C1294      C1295   1.413       .  A
C1295      C1296   1.410       .  A
C1295     Br1302   1.934       .  S
C1296      C1297   1.414       .  A
C1296     Br1301   1.934       .  S
C1297      C1298   1.412       .  A
C1298     Br1299   1.931       .  S
C1303      C1304   1.413       .  A
C1303      C1308   1.412       .  A
C1303     Br1310   1.931       .  S
C1304      C1305   1.412       .  A
C1305      C1306   1.408       .  A
C1305     Br1312   1.932       .  S
C1306      C1307   1.412       .  A
C1306     Br1311   1.933       .  S
C1307      C1308   1.413       .  A
C1308     Br1309   1.932       .  S
C1313      C1314   1.410       .  A
C1313      C1318   1.414       .  A
C1313     Br1320   1.934       .  S
C1314      C1315   1.410       .  A
C1315      C1316   1.413       .  A
C1315     Br1322   1.932       .  S
C1316      C1317   1.421       .  A
C1316     Br1321   1.935       .  S
C1317      C1318   1.421       .  A
C1318     Br1319   1.927       .  S
C1323      C1324   1.417       .  A
C1323      C1328   1.415       .  A
C1323     Br1330   1.933       .  S
C1324      C1325   1.412       .  A
C1325      C1326   1.409       .  A
C1325     Br1332   1.922       .  S
C1326      C1327   1.410       .  A
C1326     Br1331   1.934       .  S
C1327      C1328   1.412       .  A
C1328     Br1329   1.932       .  S
C1333      C1334   1.410       .  A
C1333      C1338   1.412       .  A
C1333     Br1340   1.933       .  S
C1334      C1335   1.408       .  A
C1335      C1336   1.411       .  A
C1335     Br1342   1.935       .  S
C1336      C1337   1.420       .  A
C1336     Br1341   1.928       .  S
C1337      C1338   1.421       .  A
C1338     Br1339   1.937       .  S
C1343      C1344   1.418       .  A
C1343      C1348   1.415       .  A
C1343     Br1350   1.936       .  S
C1344      C1345   1.415       .  A
C1345      C1346   1.411       .  A
C1345     Br1352   1.937       .  S
C1346      C1347   1.418       .  A
C1346     Br1351   1.937       .  S
C1347      C1348   1.420       .  A
C1348     Br1349   1.932       .  S
C1353      C1354   1.413       .  A
C1353      C1358   1.407       .  A
C1353     Br1360   1.934       .  S
C1354      C1355   1.416       .  A
C1355      C1356   1.413       .  A
C1355     Br1362   1.934       .  S
C1356      C1357   1.414       .  A
C1356     Br1361   1.933       .  S
C1357      C1358   1.413       .  A
C1358     Br1359   1.935       .  S
C1363      C1364   1.404       .  A
C1363      C1368   1.410       .  A
C1363     Br1370   1.935       .  S
C1364      C1365   1.406       .  A
C1365      C1366   1.414       .  A
C1365     Br1372   1.934       .  S
C1366      C1367   1.427       .  A
C1366     Br1371   1.936       .  S
C1367      C1368   1.427       .  A
C1368     Br1369   1.935       .  S
C1373      C1374   1.410       .  A
C1373      C1378   1.409       .  A
C1373     Br1380   1.924       .  S
C1374      C1375   1.415       .  A
C1375      C1376   1.414       .  A
C1375     Br1382   1.933       .  S
C1376      C1377   1.415       .  A
C1376     Br1381   1.934       .  S
C1377      C1378   1.414       .  A
C1378     Br1379   1.936       .  S
C1383      C1384   1.406       .  A
C1383      C1388   1.414       .  A
C1383     Br1390   1.935       .  S
C1384      C1385   1.407       .  A
C1385      C1386   1.410       .  A
C1385     Br1392   1.936       .  S
C1386      C1387   1.426       .  A
C1386     Br1391   1.936       .  S
C1387      C1388   1.431       .  A
C1388     Br1389   1.938       .  S
C1393      C1394   1.410       .  A
C1393      C1398   1.407       .  A
C1393     Br1400   1.923       .  S
C1394      C1395   1.412       .  A
C1395      C1396   1.411       .  A
C1395     Br1402   1.930       .  S
C1396      C1397   1.410       .  A
C1396     Br1401   1.923       .  S
C1397      C1398   1.409       .  A
C1398     Br1399   1.931       .  S
C1403      C1404   1.412       .  A
C1403      C1408   1.410       .  A
C1403     Br1410   1.931       .  S
C1404      C1405   1.412       .  A
C1405      C1406   1.410       .  A
C1405     Br1412   1.930       .  S
C1406      C1407   1.411       .  A
C1406     Br1411   1.931       .  S
C1407      C1408   1.410       .  A
C1408     Br1409   1.930       .  S
C1413      C1414   1.417       .  A
C1413      C1418   1.414       .  A
C1413     Br1420   1.932       .  S
C1414      C1415   1.416       .  A
C1415      C1416   1.411       .  A
C1415     Br1422   1.926       .  S
C1416      C1417   1.412       .  A
C1416     Br1421   1.936       .  S
C1417      C1418   1.413       .  A
C1418     Br1419   1.932       .  S
C1423      C1424   1.420       .  A
C1423      C1428   1.411       .  A
C1423     Br1430   1.935       .  S
C1424      C1425   1.423       .  A
C1425      C1426   1.409       .  A
C1425     Br1432   1.935       .  S
C1426      C1427   1.406       .  A
C1426     Br1431   1.935       .  S
C1427      C1428   1.409       .  A
C1428     Br1429   1.933       .  S
C1433      C1434   1.414       .  A
C1433      C1438   1.413       .  A
C1433     Br1440   1.934       .  S
C1434      C1435   1.414       .  A
C1435      C1436   1.409       .  A
C1435     Br1442   1.925       .  S
C1436      C1437   1.413       .  A
C1436     Br1441   1.936       .  S
C1437      C1438   1.416       .  A
C1438     Br1439   1.932       .  S
C1443      C1444   1.409       .  A
C1443      C1448   1.407       .  A
C1443     Br1450   1.925       .  S
C1444      C1445   1.412       .  A
C1445      C1446   1.410       .  A
C1445     Br1452   1.931       .  S
C1446      C1447   1.411       .  A
C1446     Br1451   1.932       .  S
C1447      C1448   1.410       .  A
C1448     Br1449   1.932       .  S
C1453      C1454   1.407       .  A
C1453      C1458   1.411       .  A
C1453     Br1460   1.935       .  S
C1454      C1455   1.409       .  A
C1455      C1456   1.411       .  A
C1455     Br1462   1.934       .  S
C1456      C1457   1.421       .  A
C1456     Br1461   1.935       .  S
C1457      C1458   1.423       .  A
C1458     Br1459   1.934       .  S
C1463      C1464   1.417       .  A
C1463      C1468   1.411       .  A
C1463     Br1470   1.934       .  S
C1464      C1465   1.413       .  A
C1465      C1466   1.411       .  A
C1465     Br1472   1.931       .  S
C1466      C1467   1.413       .  A
C1466     Br1471   1.933       .  S
C1467      C1468   1.411       .  A
C1468     Br1469   1.934       .  S
C1473      C1474   1.414       .  A
C1473      C1478   1.410       .  A
C1473     Br1480   1.934       .  S
C1474      C1475   1.414       .  A
C1475      C1476   1.409       .  A
C1475     Br1482   1.934       .  S
C1476      C1477   1.413       .  A
C1476     Br1481   1.935       .  S
C1477      C1478   1.413       .  A
C1478     Br1479   1.933       .  S
C1483      C1484   1.412       .  A
C1483      C1488   1.411       .  A
C1483     Br1490   1.932       .  S
C1484      C1485   1.412       .  A
C1485      C1486   1.413       .  A
C1485     Br1492   1.934       .  S
C1486      C1487   1.420       .  A
C1486     Br1491   1.935       .  S
C1487      C1488   1.416       .  A
C1488     Br1489   1.933       .  S
C1493      C1494   1.411       .  A
C1493      C1498   1.407       .  A
C1493     Br1500   1.933       .  S
C1494      C1495   1.411       .  A
C1495      C1496   1.408       .  A
C1495     Br1502   1.931       .  S
C1496      C1497   1.411       .  A
C1496     Br1501   1.932       .  S
C1497      C1498   1.413       .  A
C1498     Br1499   1.933       .  S
C1503      C1504   1.415       .  A
C1503      C1508   1.413       .  A
C1503     Br1510   1.933       .  S
C1504      C1505   1.413       .  A
C1505      C1506   1.412       .  A
C1505     Br1512   1.931       .  S
C1506      C1507   1.414       .  A
C1506     Br1511   1.933       .  S
C1507      C1508   1.413       .  A
C1508     Br1509   1.932       .  S
C1513      C1514   1.428       .  A
C1513      C1518   1.407       .  A
C1513     Br1520   1.935       .  S
C1514      C1515   1.425       .  A
C1515      C1516   1.412       .  A
C1515     Br1522   1.933       .  S
C1516      C1517   1.406       .  A
C1516     Br1521   1.935       .  S
C1517      C1518   1.401       .  A
C1518     Br1519   1.936       .  S
C1523      C1524   1.414       .  A
C1523      C1528   1.408       .  A
C1523     Br1530   1.927       .  S
C1524      C1525   1.416       .  A
C1525      C1526   1.411       .  A
C1525     Br1532   1.934       .  S
C1526      C1527   1.411       .  A
C1526     Br1531   1.932       .  S
C1527      C1528   1.412       .  A
C1528     Br1529   1.936       .  S
C1533      C1534   1.412       .  A
C1533      C1538   1.408       .  A
C1533     Br1540   1.934       .  S
C1534      C1535   1.413       .  A
C1535      C1536   1.411       .  A
C1535     Br1542   1.931       .  S
C1536      C1537   1.413       .  A
C1536     Br1541   1.933       .  S
C1537      C1538   1.413       .  A
C1538     Br1539   1.933       .  S
C1543      C1544   1.412       .  A
C1543      C1548   1.413       .  A
C1543     Br1550   1.934       .  S
C1544      C1545   1.410       .  A
C1545      C1546   1.412       .  A
C1545     Br1552   1.934       .  S
C1546      C1547   1.420       .  A
C1546     Br1551   1.932       .  S
C1547      C1548   1.419       .  A
C1548     Br1549   1.932       .  S
C1553      C1554   1.414       .  A
C1553      C1558   1.413   1_545  A
C1553     Br1560   1.933       .  S
C1554      C1555   1.412       .  A
C1555      C1556   1.410   1_545  A
C1555     Br1562   1.935       .  S
C1556      C1557   1.413       .  A
C1556     Br1561   1.925       .  S
C1557      C1558   1.416       .  A
C1558     Br1559   1.934       .  S
C1563      C1564   1.405       .  A
C1563      C1568   1.407       .  A
C1563     Br1570   1.936       .  S
C1564      C1565   1.403       .  A
C1565      C1566   1.409       .  A
C1565     Br1572   1.935       .  S
C1566      C1567   1.430       .  A
C1566     Br1571   1.938       .  S
C1567      C1568   1.424       .  A
C1568     Br1569   1.932       .  S
C1573      C1574   1.405       .  A
C1573      C1578   1.410       .  A
C1573     Br1580   1.933       .  S
C1574      C1575   1.408       .  A
C1575      C1576   1.414       .  A
C1575     Br1582   1.935       .  S
C1576      C1577   1.426       .  A
C1576     Br1581   1.934       .  S
C1577      C1578   1.428       .  A
C1578     Br1579   1.939       .  S
C1583      C1584   1.410       .  A
C1583      C1588   1.408   1_655  A
C1583     Br1590   1.932       .  S
C1584      C1585   1.412       .  A
C1585      C1586   1.409   1_655  A
C1585     Br1592   1.935       .  S
C1586      C1587   1.413       .  A
C1586     Br1591   1.929       .  S
C1587      C1588   1.414       .  A
C1588     Br1589   1.932       .  S
C1593      C1594   1.408       .  A
C1593      C1598   1.411       .  A
C1593     Br1600   1.933       .  S
C1594      C1595   1.406       .  A
C1595      C1596   1.411       .  A
C1595     Br1602   1.934       .  S
C1596      C1597   1.419       .  A
C1596     Br1601   1.925       .  S
C1597      C1598   1.419       .  A
C1598     Br1599   1.934       .  S
C1603      C1604   1.425       .  A
C1603      C1608   1.411       .  A
C1603     Br1610   1.935       .  S
C1604      C1605   1.421       .  A
C1605      C1606   1.409       .  A
C1605     Br1612   1.935       .  S
C1606      C1607   1.407       .  A
C1606     Br1611   1.933       .  S
C1607      C1608   1.407       .  A
C1608     Br1609   1.935       .  S
C1613      C1614   1.410       .  A
C1613      C1618   1.407   1_455  A
C1613     Br1620   1.922       .  S
C1614      C1615   1.413       .  A
C1615      C1616   1.412   1_455  A
C1615     Br1622   1.926       .  S
C1616      C1617   1.411       .  A
C1616     Br1621   1.932       .  S
C1617      C1618   1.409       .  A
C1618     Br1619   1.932       .  S
C1623      C1624   1.416       .  A
C1623      C1628   1.407   1_545  A
C1623     Br1630   1.943       .  S
C1624      C1625   1.417       .  A
C1625      C1626   1.414   1_545  A
C1625     Br1632   1.938       .  S
C1626      C1627   1.426       .  A
C1626     Br1631   1.939       .  S
C1627      C1628   1.425       .  A
C1628     Br1629   1.944       .  S
