geometry optimzed in LAMMPS
_audit_creation_date              2020-11-30 
_audit_creation_method            'lammps2cif' 
_symmetry_space_group_name_H-M    'P1' 
_symmetry_Int_Tables_number       1 
_symmetry_cell_setting            triclinic 
loop_ 
_symmetry_equiv_pos_as_xyz 
  x,y,z 
_cell_length_a                    50.25791592 
_cell_length_b                    50.706030417176436 
_cell_length_c                    30.39866887915614 
_cell_angle_alpha                 86.12402443351513 
_cell_angle_beta                  91.87408565061553 
_cell_angle_gamma                 119.31693804935202 
loop_ 
_atom_site_label 
_atom_site_type_symbol 
_atom_site_fract_x 
_atom_site_fract_y 
_atom_site_fract_z 
_atom_site_charge 
Zr1        Zr  0.80729264  0.35089092  0.18903840     2.17500
O2          O  0.76719364  0.33736757  0.24339704    -0.52100
O3          O  0.78760896  0.38754264  0.17757032    -0.75300
O4          O  0.82483509  0.35648317  0.26602631    -0.82100
O5          O  0.75236112  0.30769294  0.10194181    -0.83800
O6          O  0.87527255  0.37114200  0.26752848    -0.79500
O7          O  0.75802400  0.30816686  0.17619810    -0.91100
O8          O  0.81924457  0.42629376  0.13067519    -0.77100
O9          O  0.85509747  0.39591896  0.18117148    -0.86600
O10         O  0.80896871  0.36963028  0.11463010    -0.86200
O11         O  0.84434288  0.33354048  0.20177847    -0.73000
O12         O  0.80258266  0.31096284  0.14445054    -0.85100
Zr13       Zr  0.89035095  0.36201083  0.07056251     2.26400
Zr14       Zr  0.89215588  0.37946031  0.19177319     2.06300
Zr15       Zr  0.80375739  0.33055602  0.07078187     2.10000
Zr16       Zr  0.85721129  0.41471277  0.10665354     1.78800
O17         O  0.77884698  0.27960833  0.04447971    -0.93900
O18         O  0.88565369  0.45967225  0.14861910    -0.41700
O19         O  0.85170585  0.37653219  0.05927009    -0.78400
O20         O  0.89636280  0.40107101  0.11785819    -0.97100
O21         O  0.88864389  0.34193265  0.14426521    -0.90400
O22         O  0.84257828  0.31634638  0.07934542    -0.93200
C23         C  0.79504739  0.41246262  0.15418882     1.00500
C24         C  0.74174814  0.29961143  0.14144503     1.13500
C25         C  0.84994365  0.36323470  0.28657313     1.04300
O26         O  0.92181123  0.43432891  0.19432957    -0.95400
O27         O  0.93031366  0.36782513  0.16902659    -0.91100
O28         O  0.94254719  0.38864146  0.10054341    -0.84300
C29         C  0.95014403  0.38449284  0.14008875     1.10900
O30         O  0.81047937  0.25818128  0.20903514    -0.97300
Zr31       Zr  0.84182004  0.29664683  0.15258798     1.88900
O32         O  0.89812261  0.31973334  0.05640895    -0.74000
O33         O  0.93269969  0.38951112  0.24567507    -0.53300
O34         O  0.87177769  0.28606252  0.20844530    -0.97900
O35         O  0.80445759  0.24930955  0.12163276    -0.55100
O36         O  0.87304810  0.28212879  0.10911310    -0.74500
C37         C  0.89074171  0.29363596  0.07510941     0.97800
O38         O  0.93160624  0.38964518  0.01733398    -0.63300
O39         O  0.77390209  0.34518474  0.02021552    -0.58100
O40         O  0.87103721  0.36068175  0.99486072    -0.94800
O41         O  0.81938703  0.33898166  0.99548393    -0.93200
O42         O  0.83824908  0.43037496  0.04097160    -0.93600
O43         O  0.89751877  0.45604923  0.06255384    -0.92400
C44         C  0.84492943  0.35076808  0.97545186     1.16700
H45         H  0.79198409  0.37265876  0.10601077     0.32600
H46         H  0.91603112  0.41892205  0.11314506     0.43500
H47         H  0.83991876  0.30215587  0.05773009     0.37000
H48         H  0.84219744  0.32387440  0.23088109     0.33500
H49         H  0.88056351  0.47482905  0.13452643     0.25300
H50         H  0.93256177  0.40393691  0.26593893     0.31200
H51         H  0.89330900  0.29971212  0.19977967     0.37100
H52         H  0.81963043  0.41174907  0.03279200     0.31600
H53         H  0.75589556  0.32585351  0.01268966     0.30500
H54         H  0.75856750  0.27609939  0.03404585     0.32100
H55         H  0.81154859  0.25028919  0.09125906     0.31100
H56         H  0.90526603  0.44603634  0.04383628     0.35100
H57         H  0.92882685  0.37480927  0.99558126     0.27800
H58         H  0.77423626  0.35498870  0.26177730     0.32100
H59         H  0.81422321  0.24094476  0.20598457     0.34900
H60         H  0.76561099  0.35503633  0.03823900     0.27500
H61         H  0.92685466  0.40441764  0.00105101     0.40400
H62         H  0.91564959  0.43872080  0.22233748     0.30500
H63         H  0.87551758  0.45441842  0.17776513     0.38100
H64         H  0.78572853  0.25104128  0.11781274     0.29900
H65         H  0.92593392  0.37033310  0.26380109     0.30000
H66         H  0.76701990  0.32102184  0.26331949     0.30300
Zr67       Zr  0.80331431  0.34866734  0.68560964     2.17500
O68         O  0.76136907  0.32482975  0.73869747    -0.52100
O69         O  0.78597406  0.38672732  0.67369953    -0.75300
O70         O  0.81900497  0.35802549  0.76343882    -0.82100
O71         O  0.75153454  0.29954870  0.59761453    -0.83800
O72         O  0.86964414  0.37448076  0.76875506    -0.79500
O73         O  0.75198697  0.31290073  0.66771645    -0.91100
O74         O  0.81707697  0.42337159  0.62379109    -0.77100
O75         O  0.85049943  0.39414890  0.67842643    -0.86600
O76         O  0.80674944  0.36564528  0.60980219    -0.86200
O77         O  0.83946690  0.33121936  0.70335159    -0.73000
O78         O  0.80108279  0.30853089  0.64376870    -0.85100
Zr79       Zr  0.89192304  0.36010192  0.57737915     2.26400
Zr80       Zr  0.88659990  0.37734637  0.69556529     2.06300
Zr81       Zr  0.80415042  0.32619885  0.56857688     2.10000
Zr82       Zr  0.85481620  0.41101120  0.60248392     1.78800
O83         O  0.78296117  0.27564151  0.54163184    -0.93900
O84         O  0.88336330  0.45915873  0.63702996    -0.41700
O85         O  0.85209113  0.37223520  0.55974452    -0.78400
O86         O  0.89403536  0.39865263  0.62140260    -0.97100
O87         O  0.88727463  0.34043287  0.65146060    -0.90400
O88         O  0.84402822  0.31378748  0.58281138    -0.93200
C89         C  0.79358424  0.41097280  0.64872031     1.00500
C90         C  0.73839008  0.29821132  0.63412103     1.13500
C91         C  0.84385650  0.36665414  0.78576693     1.04300
O92         O  0.91152211  0.42868557  0.72037049    -0.95400
O93         O  0.93864662  0.39753762  0.68096522    -0.91100
O94         O  0.94386188  0.38773893  0.61083561    -0.84300
C95         C  0.95463575  0.39869692  0.64868780     1.10900
O96         O  0.81069244  0.25709624  0.71558952    -0.97300
Zr97       Zr  0.84029624  0.29462245  0.65708150     1.88900
O98         O  0.90126695  0.31786903  0.57029719    -0.74000
O99         O  0.91208601  0.35775615  0.74669595    -0.53300
O100        O  0.87309845  0.28821285  0.71257200    -0.97900
O101        O  0.80138863  0.24648964  0.63011279    -0.55100
O102        O  0.87031460  0.27777291  0.61598927    -0.74500
C103        C  0.89135844  0.29059665  0.58634688     0.97800
O104        O  0.93224381  0.38660200  0.52247556    -0.63300
O105        O  0.77161524  0.33719298  0.51810284    -0.58100
O106        O  0.87746464  0.36103136  0.49931897    -0.94800
O107        O  0.82561258  0.33759787  0.49501117    -0.93200
O108        O  0.83507651  0.42306746  0.53439656    -0.93600
O109        O  0.89536133  0.44840958  0.55425682    -0.92400
C110        C  0.85226579  0.35100585  0.47739144     1.16700
H111        H  0.78988254  0.36864482  0.60023058     0.32600
H112        H  0.91350758  0.41695017  0.61818820     0.43500
H113        H  0.84269356  0.29959933  0.56203709     0.37000
H114        H  0.83660614  0.32264018  0.73328672     0.33500
H115        H  0.87911048  0.47350775  0.61850813     0.25300
H116        H  0.92144052  0.37285062  0.76939355     0.31200
H117        H  0.89268734  0.29486840  0.69734598     0.37100
H118        H  0.83241999  0.40737338  0.51431693     0.31600
H119        H  0.78455503  0.35851248  0.50714415     0.30500
H120        H  0.76329312  0.27162799  0.52790290     0.32100
H121        H  0.80716004  0.24686362  0.59916814     0.31100
H122        H  0.90474486  0.43724067  0.54210285     0.35100
H123        H  0.94280518  0.40811562  0.52988884     0.27800
H124        H  0.76266636  0.34129885  0.75596308     0.32100
H125        H  0.81673991  0.24122906  0.71516889     0.34900
H126        H  0.76869647  0.32517672  0.49223117     0.27500
H127        H  0.94721356  0.37950567  0.52903880     0.40400
H128        H  0.92148470  0.44185257  0.69369571     0.30500
H129        H  0.87253831  0.45636517  0.66505022     0.38100
H130        H  0.78259991  0.24822568  0.62786314     0.29900
H131        H  0.89544056  0.33967364  0.76224466     0.30000
H132        H  0.76629364  0.31205350  0.75974908     0.30300
Zr133      Zr  0.53732484  0.20395313  0.16575630     2.17500
O134        O  0.52918970  0.23433807  0.21738663    -0.52100
O135        O  0.59288758  0.22618598  0.17136758    -0.75300
O136        O  0.53816780  0.18879115  0.24293220    -0.82100
O137        O  0.54904582  0.25779906  0.06888247    -0.83800
O138        O  0.50363413  0.13882608  0.25088067    -0.79500
O139        O  0.55814839  0.25585852  0.14222006    -0.91100
O140        O  0.60707785  0.19797594  0.13303009    -0.77100
O141        O  0.54113288  0.15921371  0.17065895    -0.86600
O142        O  0.55897541  0.20329566  0.09774592    -0.86200
O143        O  0.48497315  0.16497873  0.17311916    -0.73000
O144        O  0.50293465  0.20548051  0.10949822    -0.85100
Zr145      Zr  0.47778454  0.11806647  0.05371264     2.26400
Zr146      Zr  0.48956725  0.12039159  0.17793961     2.06300
Zr147      Zr  0.52614439  0.20565924  0.04230287     2.10000
Zr148      Zr  0.56184049  0.15770561  0.10227214     1.78800
O149        O  0.50061802  0.22915842  0.99964291    -0.93900
O150        O  0.58020242  0.13230378  0.15586124    -0.41700
O151        O  0.52910432  0.15948800  0.04464035    -0.78400
O152        O  0.51096849  0.11674530  0.11107216    -0.97100
O153        O  0.45527727  0.11904491  0.12046823    -0.90400
O154        O  0.47535183  0.16410311  0.04758800    -0.93200
C155        C  0.61295699  0.22063895  0.15551176     1.00500
C156        C  0.55884568  0.27040052  0.10605201     1.13500
C157        C  0.52247625  0.16419290  0.26652630     1.04300
O158        O  0.51381240  0.09223169  0.21057163    -0.95400
O159        O  0.45837991  0.06939861  0.16015700    -0.91100
O160        O  0.44671455  0.06653883  0.08708435    -0.84300
C161        C  0.44464779  0.05473641  0.12659731     1.10900
O162        O  0.43599829  0.18843413  0.16507052    -0.97300
Zr163      Zr  0.45138303  0.16372076  0.11329462     1.88900
O164        O  0.42798473  0.10561435  0.02391980    -0.74000
O165        O  0.44695095  0.09785561  0.22957175    -0.53300
O166        O  0.40663752  0.12703407  0.15557390    -0.97900
O167        O  0.44101285  0.20189283  0.07631207    -0.55100
O168        O  0.41303745  0.13524394  0.05647280    -0.74500
C169        C  0.40922561  0.11554500  0.02848448     0.97800
O170        O  0.48536693  0.08098889  0.01674563    -0.63300
O171        O  0.57330487  0.23628463  0.00092768    -0.58100
O172        O  0.48778646  0.13348426  0.97642185    -0.94800
O173        O  0.51757658  0.18493372  0.97015741    -0.93200
O174        O  0.60007230  0.17822393  0.04400158    -0.93600
O175        O  0.56718082  0.11880965  0.06696518    -0.92400
C176        C  0.50299259  0.15873574  0.95402671     1.16700
H177        H  0.57849307  0.22087574  0.09160277     0.32600
H178        H  0.51117178  0.09780520  0.11143471     0.43500
H179        H  0.46436252  0.16538741  0.02161375     0.37000
H180        H  0.47680989  0.16671694  0.20045535     0.33500
H181        H  0.60013895  0.13651577  0.14411295     0.25300
H182        H  0.42849854  0.09054446  0.21080698     0.31200
H183        H  0.39711654  0.10874669  0.13826336     0.37100
H184        H  0.60626294  0.20003446  0.04068926     0.31600
H185        H  0.57886013  0.22150052  0.99065209     0.30500
H186        H  0.51515859  0.24161340  0.97577208     0.32100
H187        H  0.44407596  0.20085692  0.04461246     0.31100
H188        H  0.55827915  0.11803777  0.03722163     0.35100
H189        H  0.50334840  0.09304325  0.99743907     0.27800
H190        H  0.51209531  0.21968140  0.23658904     0.32100
H191        H  0.41520176  0.18400653  0.15587327     0.34900
H192        H  0.56714522  0.24387881  0.97381663     0.27500
H193        H  0.49278989  0.07157897  0.04006197     0.40400
H194        H  0.52084897  0.08582716  0.18540684     0.30500
H195        H  0.58549157  0.14419093  0.18241768     0.38100
H196        H  0.45841358  0.22153006  0.08423572     0.29900
H197        H  0.44659433  0.07919618  0.24236421     0.30000
H198        H  0.52019519  0.24517345  0.19977292     0.30300
Zr199      Zr  0.53608477  0.19956425  0.66949603     2.17500
O200        O  0.53515189  0.23340895  0.72226526    -0.52100
O201        O  0.59178199  0.21923904  0.67541442    -0.75300
O202        O  0.53112290  0.18035858  0.74558323    -0.82100
O203        O  0.54641127  0.25678234  0.57706142    -0.83800
O204        O  0.49295692  0.13175838  0.74785251    -0.79500
O205        O  0.55603263  0.25234108  0.65002421    -0.91100
O206        O  0.60426029  0.19135608  0.63391700    -0.77100
O207        O  0.53800061  0.15374925  0.66924401    -0.86600
O208        O  0.55758244  0.20151660  0.60024880    -0.86200
O209        O  0.48302170  0.16095076  0.67500220    -0.73000
O210        O  0.50162872  0.20366527  0.61563203    -0.85100
Zr211      Zr  0.47637909  0.11952731  0.54826766     2.26400
Zr212      Zr  0.48573393  0.11519332  0.67328070     2.06300
Zr213      Zr  0.52457631  0.20652043  0.54698918     2.10000
Zr214      Zr  0.55889659  0.15512238  0.59939668     1.78800
O215        O  0.49537438  0.22714522  0.50709340    -0.93900
O216        O  0.57444968  0.12410317  0.64620193    -0.41700
O217        O  0.52755955  0.16082708  0.54363578    -0.78400
O218        O  0.50801149  0.11388651  0.60523969    -0.97100
O219        O  0.45299268  0.11773386  0.61598569    -0.90400
O220        O  0.47340110  0.16530438  0.54876448    -0.93200
C221        C  0.61131961  0.21320765  0.65855081     1.00500
C222        C  0.55640924  0.26776011  0.61490537     1.13500
C223        C  0.51204552  0.15581432  0.76647060     1.04300
O224        O  0.51062654  0.08486475  0.68996677    -0.95400
O225        O  0.43998745  0.07457861  0.64573753    -0.91100
O226        O  0.45350927  0.06699796  0.58034250    -0.84300
C227        C  0.44002414  0.05706016  0.61783770     1.10900
O228        O  0.43372578  0.18585717  0.66978481    -0.97300
Zr229      Zr  0.44975784  0.16245739  0.61656255     1.88900
O230        O  0.42643042  0.10881175  0.52191109    -0.74000
O231        O  0.45086268  0.07593349  0.72632517    -0.53300
O232        O  0.40778714  0.12470691  0.66256307    -0.97900
O233        O  0.43835796  0.20120065  0.58465318    -0.55100
O234        O  0.41015232  0.13490188  0.56083463    -0.74500
C235        C  0.40682508  0.11701996  0.53018186     0.97800
O236        O  0.47301009  0.08496017  0.49361981    -0.63300
O237        O  0.57105878  0.24476188  0.50969910    -0.58100
O238        O  0.49712569  0.13963661  0.47452276    -0.94800
O239        O  0.52398797  0.19097225  0.47346847    -0.93200
O240        O  0.59938775  0.17987421  0.54465726    -0.93600
O241        O  0.56390999  0.12148767  0.55097753    -0.92400
C242        C  0.51295095  0.16591225  0.45459930     1.16700
H243        H  0.57745934  0.21906989  0.59560248     0.32600
H244        H  0.50833160  0.09508737  0.60358595     0.43500
H245        H  0.46243793  0.16769292  0.52352036     0.37000
H246        H  0.47456536  0.16200028  0.70247478     0.33500
H247        H  0.59309940  0.12666514  0.63203798     0.25300
H248        H  0.46373394  0.07371162  0.75003081     0.31200
H249        H  0.41732217  0.11613686  0.68380284     0.37100
H250        H  0.59920571  0.19884062  0.53507305     0.31600
H251        H  0.57811252  0.23342151  0.49256186     0.30500
H252        H  0.50974862  0.24913070  0.50271708     0.32100
H253        H  0.41580702  0.19114736  0.58351679     0.31100
H254        H  0.54970646  0.11925067  0.52632993     0.35100
H255        H  0.48516856  0.07563932  0.50592922     0.27800
H256        H  0.55147412  0.23679461  0.74401727     0.32100
H257        H  0.41164585  0.17812174  0.66457083     0.34900
H258        H  0.56415921  0.25518401  0.48726423     0.27500
H259        H  0.45159172  0.06833523  0.49457393     0.40400
H260        H  0.51997645  0.09097705  0.71931626     0.30500
H261        H  0.58182244  0.13482379  0.67379637     0.38100
H262        H  0.44463279  0.20402647  0.55342118     0.29900
H263        H  0.43970484  0.08475292  0.74026298     0.30000
H264        H  0.51576530  0.22156844  0.73880288     0.30300
Zr265      Zr  0.65469818  0.46917913  0.16558957     2.17500
O266        O  0.67045934  0.44454379  0.22452692    -0.52100
O267        O  0.62204960  0.41393874  0.15601148    -0.75300
O268        O  0.64506875  0.47739726  0.24177338    -0.82100
O269        O  0.70467384  0.46614798  0.08127204    -0.83800
O270        O  0.62342251  0.50744360  0.23992601    -0.79500
O271        O  0.69933444  0.46436713  0.15524080    -0.91100
O272        O  0.58075414  0.40617808  0.11487957    -0.77100
O273        O  0.60688688  0.46761601  0.15637591    -0.86600
O274        O  0.63909773  0.45503542  0.09169396    -0.86200
O275        O  0.66745589  0.52125975  0.17297802    -0.73000
O276        O  0.69479764  0.50755276  0.11822556    -0.85100
Zr277      Zr  0.63975208  0.54279064  0.04275093     2.26400
Zr278      Zr  0.61886531  0.51890368  0.16337588     2.06300
Zr279      Zr  0.67829001  0.49222624  0.04541438     2.10000
Zr280      Zr  0.59163182  0.45472339  0.08230986     1.78800
O281        O  0.72961715  0.52233215  0.01528588    -0.93900
O282        O  0.54382338  0.43901126  0.12058231    -0.41700
O283        O  0.63057362  0.49202391  0.03506412    -0.78400
O284        O  0.60037820  0.50463928  0.08995969    -0.97100
O285        O  0.65699061  0.55729365  0.11538621    -0.90400
O286        O  0.68755943  0.54278926  0.05005136    -0.93200
C287        C  0.59710496  0.39655147  0.13567739     1.00500
C288        C  0.71096461  0.46045585  0.12114915     1.13500
C289        C  0.63421778  0.49212942  0.26083469     1.04300
O290        O  0.56924471  0.49308418  0.19944446    -0.95400
O291        O  0.59008421  0.54041703  0.12997899    -0.91100
O292        O  0.62331423  0.57478470  0.08160723    -0.84300
C293        C  0.60347482  0.56712899  0.11284157     1.10900
O294        O  0.74016597  0.56873675  0.18329244    -0.97300
Zr295      Zr  0.70477737  0.55895282  0.12178353     1.88900
O296        O  0.68134268  0.59173216  0.01882233    -0.74000
O297        O  0.63424954  0.56509850  0.20129557    -0.53300
O298        O  0.70932798  0.60091391  0.16214966    -0.97900
O299        O  0.75534504  0.56989654  0.09870502    -0.55100
O300        O  0.72035404  0.60215728  0.06690672    -0.74500
C301        C  0.70843176  0.60890513  0.03273683     0.97800
O302        O  0.60461621  0.55240536  0.99644150    -0.63300
O303        O  0.67123332  0.45036003  0.00240917    -0.58100
O304        O  0.64132989  0.52865175  0.96714979    -0.94800
O305        O  0.66564204  0.50060724  0.96975961    -0.93200
O306        O  0.58081630  0.42273020  0.02056528    -0.93600
O307        O  0.55221811  0.45166224  0.03074754    -0.92400
C308        C  0.65184290  0.51331737  0.94888451     1.16700
H309        H  0.63790363  0.43627332  0.08433988     0.32600
H310        H  0.58111902  0.50379030  0.08285840     0.43500
H311        H  0.70196881  0.55503039  0.02708591     0.37000
H312        H  0.67561504  0.52770554  0.20186842     0.33500
H313        H  0.52873397  0.42028168  0.10679769     0.25300
H314        H  0.61744553  0.55991447  0.22217823     0.31200
H315        H  0.72761355  0.61904627  0.14971988     0.37100
H316        H  0.59529340  0.41477636  0.02399806     0.31600
H317        H  0.64930976  0.43990593  0.99459081     0.30500
H318        H  0.72807023  0.51571158  0.98496236     0.32100
H319        H  0.75399883  0.56912201  0.06624497     0.31100
H320        H  0.56169299  0.47148092  0.01377424     0.35100
H321        H  0.61588222  0.56256409  0.96877044     0.27800
H322        H  0.65220446  0.43184066  0.24307221     0.32100
H323        H  0.75663993  0.58992223  0.17782818     0.34900
H324        H  0.68198529  0.45976720  0.97413466     0.27500
H325        H  0.58857024  0.53213445  0.98824114     0.40400
H326        H  0.56652507  0.50953275  0.21050360     0.30500
H327        H  0.54664046  0.43196669  0.15064851     0.38100
H328        H  0.75690779  0.55175386  0.10897235     0.29900
H329        H  0.65166027  0.56756588  0.22015606     0.30000
H330        H  0.68484140  0.46075685  0.24338335     0.30300
Zr331      Zr  0.65509146  0.46733662  0.66674394     2.17500
O332        O  0.67163195  0.44164899  0.72286504    -0.52100
O333        O  0.62278451  0.41167737  0.66261231    -0.75300
O334        O  0.64801436  0.47751123  0.74306088    -0.82100
O335        O  0.70450910  0.46523257  0.58005247    -0.83800
O336        O  0.62062297  0.50217186  0.74139240    -0.79500
O337        O  0.70184048  0.46681682  0.65388455    -0.91100
O338        O  0.58392853  0.40171201  0.61462693    -0.77100
O339        O  0.60559764  0.46182437  0.65667157    -0.86600
O340        O  0.64035133  0.45245438  0.59306437    -0.86200
O341        O  0.66401161  0.51815488  0.67373080    -0.73000
O342        O  0.69385066  0.50693245  0.61904613    -0.85100
Zr343      Zr  0.63478998  0.53695509  0.54248403     2.26400
Zr344      Zr  0.61371018  0.51170144  0.66432533     2.06300
Zr345      Zr  0.67807019  0.49116862  0.54616991     2.10000
Zr346      Zr  0.59153502  0.44893986  0.58216025     1.78800
O347        O  0.72964080  0.52579700  0.51994782    -0.93900
O348        O  0.54156053  0.42803460  0.61655108    -0.41700
O349        O  0.62911644  0.48759184  0.53508140    -0.78400
O350        O  0.59674399  0.49754815  0.59045714    -0.97100
O351        O  0.65046267  0.55106720  0.61570244    -0.90400
O352        O  0.68409195  0.54061894  0.55055998    -0.93200
C353        C  0.59901525  0.39334313  0.64097781     1.00500
C354        C  0.71236571  0.46163286  0.61973300     1.13500
C355        C  0.63539410  0.49062982  0.76210056     1.04300
O356        O  0.56240211  0.47870018  0.69302166    -0.95400
O357        O  0.58582825  0.53424307  0.63021987    -0.91100
O358        O  0.61857982  0.56872006  0.58152938    -0.84300
C359        C  0.59949226  0.56116634  0.61370126     1.10900
O360        O  0.73599382  0.56902593  0.68366689    -0.97300
Zr361      Zr  0.69988290  0.55697527  0.62271511     1.88900
O362        O  0.67325610  0.58836636  0.52038831    -0.74000
O363        O  0.62163297  0.55397866  0.70703886    -0.53300
O364        O  0.69977388  0.59389677  0.66994206    -0.97900
O365        O  0.75194280  0.57346007  0.59939823    -0.55100
O366        O  0.71172557  0.60084492  0.57028328    -0.74500
C367        C  0.69929209  0.60710727  0.53620616     0.97800
O368        O  0.59456617  0.53713725  0.49579941    -0.63300
O369        O  0.67521586  0.45383644  0.49687500    -0.58100
O370        O  0.64115911  0.52572728  0.46670316    -0.94800
O371        O  0.66408243  0.49642591  0.47070227    -0.93200
O372        O  0.58523312  0.41661957  0.52248981    -0.93600
O373        O  0.55335452  0.44516609  0.52777029    -0.92400
C374        C  0.65167354  0.51011845  0.44897118     1.16700
H375        H  0.64023896  0.43391429  0.58732456     0.32600
H376        H  0.57695883  0.49563133  0.58405165     0.43500
H377        H  0.69821097  0.55402557  0.52802915     0.37000
H378        H  0.67236859  0.52566628  0.70212774     0.33500
H379        H  0.52962195  0.40747835  0.60552197     0.25300
H380        H  0.60528914  0.54518168  0.72959356     0.31200
H381        H  0.68851432  0.60274453  0.65316640     0.37100
H382        H  0.60620180  0.42109722  0.51557033     0.31600
H383        H  0.69641310  0.45767712  0.49415098     0.30500
H384        H  0.73268878  0.51559563  0.49552545     0.32100
H385        H  0.75185133  0.57708486  0.56699924     0.31100
H386        H  0.56515087  0.46054529  0.50399399     0.35100
H387        H  0.57605545  0.52707737  0.51452392     0.27800
H388        H  0.65460855  0.43098681  0.74419006     0.32100
H389        H  0.75081143  0.59088928  0.67894122     0.34900
H390        H  0.66439905  0.43409501  0.51386354     0.27500
H391        H  0.59958790  0.55864659  0.49271112     0.40400
H392        H  0.56441469  0.46441405  0.71493255     0.30500
H393        H  0.54492886  0.42442332  0.64813297     0.38100
H394        H  0.75429728  0.55518338  0.60378981     0.29900
H395        H  0.64077921  0.55973707  0.72368510     0.30000
H396        H  0.68830713  0.45781185  0.73927891     0.30300
Zr397      Zr  0.32004394  0.79318248  0.16755350     2.17500
O398        O  0.30101634  0.75051431  0.12017593    -0.52100
O399        O  0.35604663  0.77299595  0.17152588    -0.75300
O400        O  0.32458397  0.80807258  0.08920265    -0.82100
O401        O  0.28325215  0.73987361  0.26264146    -0.83800
O402        O  0.34646292  0.85920101  0.08234003    -0.79500
O403        O  0.27469127  0.74822525  0.19136115    -0.91100
O404        O  0.39928877  0.80568725  0.20650590    -0.77100
O405        O  0.36718817  0.83897113  0.16767049    -0.86600
O406        O  0.34109148  0.79383595  0.23906287    -0.86200
O407        O  0.30515857  0.83180318  0.15341765    -0.73000
O408        O  0.28261466  0.79079640  0.21802591    -0.85100
Zr409      Zr  0.33969030  0.87802098  0.27769409     2.26400
Zr410      Zr  0.35319890  0.87755003  0.15536895     2.06300
Zr411      Zr  0.30434344  0.79130319  0.28914514     2.10000
Zr412      Zr  0.38777344  0.84042704  0.23985456     1.78800
O413        O  0.25368192  0.76458531  0.32218290    -0.93900
O414        O  0.43471350  0.87223137  0.19852275    -0.41700
O415        O  0.35162315  0.83794111  0.29113189    -0.78400
O416        O  0.37670833  0.88094990  0.22640231    -0.97100
O417        O  0.31750021  0.87648591  0.20691069    -0.90400
O418        O  0.29232171  0.83165206  0.27855279    -0.93200
C419        C  0.38319836  0.78154029  0.18639225     1.00500
C420        C  0.27241831  0.73037907  0.22437551     1.13500
C421        C  0.33544616  0.83327774  0.06623140     1.04300
O422        O  0.40818488  0.90893405  0.14631701    -0.95400
O423        O  0.34493165  0.91717546  0.17790055    -0.91100
O424        O  0.36875487  0.92884527  0.24210809    -0.84300
C425        C  0.36503595  0.93643838  0.20229338     1.10900
O426        O  0.23175124  0.80337583  0.15354522    -0.97300
Zr427      Zr  0.27041367  0.83124635  0.20810128     1.88900
O428        O  0.30218432  0.89309196  0.29093476    -0.74000
O429        O  0.35868592  0.91510343  0.09640898    -0.53300
O430        O  0.25780236  0.86341211  0.15875901    -0.97900
O431        O  0.22287565  0.79301840  0.24292567    -0.55100
O432        O  0.25867591  0.86298120  0.25442396    -0.74500
C433        C  0.27429472  0.88434518  0.28077386     0.97800
O434        O  0.37421007  0.91281260  0.33079349    -0.63300
O435        O  0.32351226  0.76523560  0.34001260    -0.58100
O436        O  0.33487711  0.86220358  0.35547865    -0.94800
O437        O  0.31431998  0.81093361  0.36184108    -0.93200
O438        O  0.39909295  0.81502973  0.30275106    -0.93600
O439        O  0.42835419  0.87425948  0.28760820    -0.92400
C440        C  0.32541969  0.83695348  0.37819325     1.16700
H441        H  0.34406433  0.77666235  0.24647273     0.32600
H442        H  0.39551666  0.89974640  0.22835024     0.43500
H443        H  0.27923606  0.83060505  0.30198442     0.37000
H444        H  0.29539027  0.83005444  0.12505946     0.33500
H445        H  0.44899697  0.86503759  0.20929093     0.25300
H446        H  0.37378208  0.91609882  0.07528970     0.31200
H447        H  0.23774607  0.85975521  0.16921034     0.37100
H448        H  0.40268065  0.79945894  0.29044067     0.31600
H449        H  0.30500664  0.74805417  0.35369624     0.30500
H450        H  0.25333143  0.77877647  0.34269365     0.32100
H451        H  0.20843522  0.80083327  0.23688435     0.31100
H452        H  0.41848451  0.88246563  0.30591871     0.35100
H453        H  0.39478482  0.92148364  0.31766482     0.27800
H454        H  0.31788472  0.75500043  0.09978487     0.32100
H455        H  0.23402892  0.78539935  0.14922796     0.34900
H456        H  0.33172787  0.75569573  0.32121291     0.27500
H457        H  0.36971708  0.92980363  0.32962722     0.40400
H458        H  0.41251847  0.90406899  0.11731897     0.30500
H459        H  0.42987075  0.86565476  0.16797039     0.38100
H460        H  0.22682306  0.79485809  0.27497921     0.29900
H461        H  0.33899572  0.90616281  0.08038768     0.30000
H462        H  0.28507889  0.75159606  0.10135363     0.30300
Zr463      Zr  0.31979593  0.79468139  0.66795276     2.17500
O464        O  0.29850650  0.75296605  0.61869368    -0.52100
O465        O  0.35345124  0.77164875  0.67602191    -0.75300
O466        O  0.32820662  0.81135316  0.58987309    -0.82100
O467        O  0.27880514  0.74210587  0.76067790    -0.83800
O468        O  0.34864808  0.86232415  0.58416436    -0.79500
O469        O  0.27266240  0.75035210  0.68847640    -0.91100
O470        O  0.39423028  0.80074848  0.71859987    -0.77100
O471        O  0.36819728  0.83894454  0.67170549    -0.86600
O472        O  0.33748814  0.79405935  0.74150398    -0.86200
O473        O  0.30799893  0.83516170  0.65269339    -0.73000
O474        O  0.28143105  0.79443881  0.71422734    -0.85100
Zr475      Zr  0.34076973  0.88082307  0.77851577     2.26400
Zr476      Zr  0.35699578  0.87932139  0.65761179     2.06300
Zr477      Zr  0.29965984  0.79329065  0.78714493     2.10000
Zr478      Zr  0.38556391  0.83902152  0.74583797     1.78800
O479        O  0.24691339  0.77123751  0.81121472    -0.93900
O480        O  0.43502737  0.86712806  0.70935690    -0.41700
O481        O  0.34854375  0.83803500  0.79372100    -0.78400
O482        O  0.37849358  0.88191594  0.73004321    -0.97100
O483        O  0.32116381  0.88078489  0.70616501    -0.90400
O484        O  0.29171595  0.83616966  0.77572241    -0.93200
C485        C  0.37868519  0.77768765  0.69604620     1.00500
C486        C  0.26889722  0.73257651  0.72222190     1.13500
C487        C  0.33819678  0.83671281  0.56734025     1.04300
O488        O  0.41220169  0.90943005  0.64954355    -0.95400
O489        O  0.34916816  0.91944138  0.67851383    -0.91100
O490        O  0.37366525  0.93142354  0.74191367    -0.84300
C491        C  0.36953542  0.93900397  0.70216503     1.10900
O492        O  0.23440189  0.81474727  0.64630902    -0.97300
Zr493      Zr  0.27287268  0.83721681  0.70343104     1.88900
O494        O  0.30303163  0.89597798  0.78980629    -0.74000
O495        O  0.36514235  0.91306905  0.59229669    -0.53300
O496        O  0.27036193  0.87453775  0.65117911    -0.97900
O497        O  0.22275791  0.79923760  0.73134320    -0.55100
O498        O  0.26063447  0.86840202  0.74935540    -0.74500
C499        C  0.27579037  0.88855380  0.77746982     0.97800
O500        O  0.36873960  0.91829584  0.83261940    -0.63300
O501        O  0.30824513  0.76115300  0.84248101    -0.58100
O502        O  0.33709147  0.86211958  0.85581935    -0.94800
O503        O  0.30834677  0.81065633  0.86040671    -0.93200
O504        O  0.39395916  0.81170861  0.80890769    -0.93600
O505        O  0.42365507  0.87327287  0.79618342    -0.92400
C506        C  0.32329064  0.83624914  0.87766498     1.16700
H507        H  0.33889807  0.77615463  0.75011709     0.32600
H508        H  0.39791152  0.90009757  0.73256955     0.43500
H509        H  0.27809777  0.83536795  0.79809981     0.37000
H510        H  0.29894276  0.83396249  0.62391337     0.33500
H511        H  0.44826412  0.86059969  0.72605528     0.25300
H512        H  0.34619580  0.91448891  0.58910577     0.31200
H513        H  0.28648550  0.87938942  0.62921804     0.37100
H514        H  0.41450594  0.81424868  0.80416407     0.31600
H515        H  0.28815369  0.74266520  0.84677558     0.30500
H516        H  0.23861792  0.74907398  0.81074976     0.32100
H517        H  0.22310414  0.80298103  0.76294209     0.31100
H518        H  0.41276065  0.88129159  0.81270024     0.35100
H519        H  0.39051220  0.92732138  0.82446999     0.27800
H520        H  0.31599250  0.75486842  0.60197607     0.32100
H521        H  0.21912678  0.82121887  0.65132423     0.34900
H522        H  0.32092188  0.75441844  0.82759134     0.27500
H523        H  0.36362363  0.93468409  0.82588138     0.40400
H524        H  0.41724341  0.89940570  0.62691298     0.30500
H525        H  0.43200523  0.85809538  0.68048776     0.38100
H526        H  0.22274559  0.77970958  0.73117999     0.29900
H527        H  0.38094780  0.93339323  0.60069948     0.30000
H528        H  0.28602325  0.75736367  0.59665982     0.30300
Zr529      Zr  0.20747479  0.53681626  0.17851800     2.17500
O530        O  0.24226324  0.53370519  0.12759064    -0.52100
O531        O  0.22846936  0.59185393  0.17200091    -0.75300
O532        O  0.19123374  0.53522663  0.10295433    -0.82100
O533        O  0.26218746  0.55126028  0.27156022    -0.83800
O534        O  0.14329655  0.49522282  0.10126539    -0.79500
O535        O  0.25962509  0.55537630  0.19672901    -0.91100
O536        O  0.18508295  0.59319966  0.17779673    -0.77100
O537        O  0.16031178  0.53711867  0.17457224    -0.86600
O538        O  0.20576354  0.55976514  0.24380222    -0.86200
O539        O  0.17002309  0.48384506  0.17743523    -0.73000
O540        O  0.21085234  0.50482786  0.23806940    -0.85100
Zr541      Zr  0.12172925  0.47740495  0.30007445     2.26400
Zr542      Zr  0.12287897  0.48495152  0.17506532     2.06300
Zr543      Zr  0.20966836  0.52861849  0.30207186     2.10000
Zr544      Zr  0.15802129  0.55936321  0.23994461     1.78800
O545        O  0.23802814  0.50900868  0.34651813    -0.93900
O546        O  0.12021900  0.57181880  0.20726204    -0.41700
O547        O  0.16191943  0.52914289  0.30098135    -0.78400
O548        O  0.11785778  0.50791754  0.23865703    -0.97100
O549        O  0.12492165  0.45409260  0.23676777    -0.90400
O550        O  0.16928842  0.47711568  0.30418192    -0.93200
C551        C  0.21405351  0.60665312  0.17507673     1.00500
C552        C  0.27437758  0.55869360  0.23265753     1.13500
C553        C  0.16765660  0.51610179  0.08268800     1.04300
O554        O  0.08857740  0.50521206  0.15681152    -0.95400
O555        O  0.08590413  0.43761103  0.20912824    -0.91100
O556        O  0.07047827  0.45118327  0.26648419    -0.84300
C557        C  0.06455970  0.43730379  0.23065752     1.10900
O558        O  0.20194941  0.44065678  0.19523380    -0.97300
Zr559      Zr  0.17106089  0.45283765  0.24135806     1.88900
O560        O  0.10881841  0.42720575  0.33000258    -0.74000
O561        O  0.08660140  0.45087047  0.12237696    -0.53300
O562        O  0.13833458  0.40882292  0.19978198    -0.97900
O563        O  0.20900525  0.44487673  0.28331254    -0.55100
O564        O  0.13994296  0.41301168  0.29860624    -0.74500
C565        C  0.11870754  0.40851450  0.32592382     0.97800
O566        O  0.08384453  0.47923603  0.34579282    -0.63300
O567        O  0.23514018  0.57721850  0.33612945    -0.58100
O568        O  0.13783219  0.49150788  0.37523575    -0.94800
O569        O  0.18979139  0.51866757  0.37608062    -0.93200
O570        O  0.18982782  0.60737055  0.27335671    -0.93600
O571        O  0.13003374  0.56976028  0.29378826    -0.92400
C572        C  0.16361237  0.50576982  0.39502530     1.16700
H573        H  0.22259815  0.57985010  0.24757651     0.32600
H574        H  0.09832350  0.50719032  0.23930354     0.43500
H575        H  0.17067677  0.46657639  0.33110690     0.37000
H576        H  0.17257344  0.47554588  0.15122650     0.33500
H577        H  0.12324500  0.57299104  0.17503008     0.25300
H578        H  0.08426031  0.46393763  0.09863745     0.31200
H579        H  0.13372140  0.41731773  0.17215473     0.37100
H580        H  0.19488063  0.60166418  0.30295795     0.31600
H581        H  0.24462791  0.57356169  0.36321553     0.30500
H582        H  0.25168399  0.52581457  0.36501588     0.32100
H583        H  0.20095962  0.42269052  0.28469363     0.31100
H584        H  0.11441571  0.54949834  0.30564900     0.35100
H585        H  0.07543981  0.49012964  0.32697960     0.27800
H586        H  0.24671809  0.54960153  0.10372704     0.32100
H587        H  0.19384583  0.41852712  0.20004428     0.34900
H588        H  0.25259581  0.59060675  0.31657785     0.27500
H589        H  0.06693165  0.45810493  0.34924704     0.40400
H590        H  0.09971868  0.52178010  0.13415446     0.30500
H591        H  0.10015278  0.55353614  0.21282577     0.38100
H592        H  0.20720269  0.44937960  0.31390534     0.29900
H593        H  0.09717666  0.44146555  0.10839505     0.30000
H594        H  0.23006885  0.51421768  0.11358075     0.30300
Zr595      Zr  0.21207525  0.54092675  0.67863418     2.17500
O596        O  0.25450683  0.56181159  0.62652106    -0.52100
O597        O  0.23062063  0.59572602  0.67187822    -0.75300
O598        O  0.19513110  0.52866678  0.60293500    -0.82100
O599        O  0.26761936  0.56080535  0.77011966    -0.83800
O600        O  0.14371271  0.49913679  0.60351515    -0.79500
O601        O  0.26074533  0.54592959  0.70027694    -0.91100
O602        O  0.18584954  0.59361490  0.67635224    -0.77100
O603        O  0.16510186  0.54191828  0.67746479    -0.86600
O604        O  0.21159761  0.56433392  0.74444828    -0.86200
O605        O  0.17303775  0.48808718  0.67783329    -0.73000
O606        O  0.21535451  0.50821337  0.73769868    -0.85100
Zr607      Zr  0.12744127  0.48272638  0.80343540     2.26400
Zr608      Zr  0.12632476  0.49008240  0.67859924     2.06300
Zr609      Zr  0.21563899  0.53260024  0.80207946     2.10000
Zr610      Zr  0.16395431  0.56433856  0.74341244     1.78800
O611        O  0.24367857  0.50942706  0.83834799    -0.93900
O612        O  0.12535657  0.57645680  0.71379454    -0.41700
O613        O  0.16848089  0.53401856  0.80344443    -0.78400
O614        O  0.12314322  0.51349984  0.74294485    -0.97100
O615        O  0.12847389  0.45884619  0.73944691    -0.90400
O616        O  0.17457495  0.48136101  0.80483388    -0.93200
C617        C  0.21463635  0.60897706  0.67393354     1.00500
C618        C  0.27793055  0.55926727  0.73261271     1.13500
C619        C  0.16937593  0.51348656  0.58366695     1.04300
O620        O  0.09124511  0.50979230  0.66317342    -0.95400
O621        O  0.09035134  0.44364542  0.71600568    -0.91100
O622        O  0.07534594  0.45782535  0.77269665    -0.84300
C623        C  0.06922131  0.44438603  0.73650657     1.10900
O624        O  0.20507819  0.44589754  0.69344516    -0.97300
Zr625      Zr  0.17393318  0.45657818  0.74111843     1.88900
O626        O  0.11310138  0.43230276  0.83344409    -0.74000
O627        O  0.08899244  0.45443123  0.62850340    -0.53300
O628        O  0.14085115  0.41388045  0.69740496    -0.97900
O629        O  0.20614225  0.43948708  0.78093201    -0.55100
O630        O  0.14080589  0.41640818  0.79683509    -0.74500
C631        C  0.12076094  0.41238168  0.82604076     0.97800
O632        O  0.09296813  0.48851912  0.85142098    -0.63300
O633        O  0.24266427  0.57763746  0.84423058    -0.58100
O634        O  0.14534594  0.49604057  0.87745236    -0.94800
O635        O  0.19724801  0.52400287  0.87665486    -0.93200
O636        O  0.19746182  0.61298166  0.77423832    -0.93600
O637        O  0.13775294  0.57581014  0.79875105    -0.92400
C638        C  0.17135991  0.51067052  0.89627953     1.16700
H639        H  0.22868361  0.58435059  0.74767519     0.32600
H640        H  0.10402906  0.51353966  0.74450946     0.43500
H641        H  0.17616634  0.47051846  0.83123076     0.29800
H642        H  0.17454555  0.47906411  0.65171304     0.33500
H643        H  0.13536543  0.59884214  0.71326177     0.25300
H644        H  0.08643357  0.46662548  0.60359045     0.31200
H645        H  0.12589620  0.41920017  0.68343761     0.37100
H646        H  0.18945341  0.62644512  0.76254588     0.31600
H647        H  0.26266306  0.57904981  0.85137118     0.30500
H648        H  0.24509933  0.49693029  0.81586584     0.32100
H649        H  0.19585475  0.41738667  0.77727198     0.31100
H650        H  0.12151362  0.55574939  0.81022925     0.35100
H651        H  0.08286903  0.49743637  0.83197149     0.27800
H652        H  0.24948569  0.57287264  0.60255771     0.32100
H653        H  0.21922527  0.46578958  0.67871789     0.34900
H654        H  0.24745240  0.59495950  0.82278814     0.27500
H655        H  0.07669700  0.46761241  0.85936656     0.40400
H656        H  0.09323662  0.51526943  0.63111740     0.30500
H657        H  0.12352594  0.57186092  0.68234206     0.38100
H658        H  0.20319414  0.44114330  0.81246668     0.29900
H659        H  0.09910868  0.44416620  0.61570424     0.30000
H660        H  0.25363169  0.54424932  0.61284322     0.30300
Zr661      Zr  0.47313807  0.67317760  0.16587021     2.17500
O662        O  0.44339310  0.68424207  0.10991029    -0.52100
O663        O  0.41903321  0.63281637  0.17251089    -0.75300
O664        O  0.48589597  0.67022812  0.08956278    -0.82100
O665        O  0.45381937  0.70912274  0.25233373    -0.83800
O666        O  0.52253665  0.65645078  0.09186179    -0.79500
O667        O  0.46145638  0.71264409  0.17879448    -0.91100
O668        O  0.41478148  0.59753828  0.22572490    -0.77100
O669        O  0.47963508  0.62988561  0.17644009    -0.86600
O670        O  0.45817349  0.65411759  0.23997458    -0.86200
O671        O  0.52728678  0.69332455  0.15550002    -0.73000
O672        O  0.50599274  0.71413823  0.21158962    -0.85100
Zr673      Zr  0.54969328  0.66702350  0.28956150     2.26400
Zr674      Zr  0.53317416  0.64919726  0.16793434     2.06300
Zr675      Zr  0.48996281  0.69395818  0.28511489     2.10000
Zr676      Zr  0.46510362  0.61082166  0.25075276     1.78800
O677        O  0.51178762  0.74576069  0.30726476    -0.93900
O678        O  0.44816149  0.56608021  0.20855068    -0.41700
O679        O  0.49629668  0.64997492  0.29866539    -0.78400
O680        O  0.51800913  0.62711572  0.24163281    -0.97100
O681        O  0.56568537  0.68781063  0.21630051    -0.90400
O682        O  0.54315370  0.71069737  0.27849898    -0.93200
C683        C  0.40308783  0.60901821  0.19800215     1.00500
C684        C  0.44958795  0.71662936  0.21250739     1.13500
C685        C  0.50456747  0.66393567  0.07096280     1.04300
O686        O  0.51098591  0.59444034  0.16667840    -0.95400
O687        O  0.58384649  0.66688383  0.19589364    -0.91100
O688        O  0.57684658  0.64203282  0.26031023    -0.84300
C689        C  0.58714477  0.64761884  0.22066312     1.10900
O690        O  0.56576365  0.76975615  0.14866867    -0.97300
Zr691      Zr  0.55973053  0.73106843  0.20574200     1.88900
O692        O  0.59795659  0.71133429  0.30398013    -0.74000
O693        O  0.56428405  0.64030277  0.11721777    -0.53300
O694        O  0.60009573  0.74230906  0.15325940    -0.97900
O695        O  0.56492497  0.77714614  0.23423338    -0.55100
O696        O  0.60565197  0.74887887  0.25205120    -0.74500
C697        C  0.61380133  0.73815889  0.28629039     0.97800
O698        O  0.56161147  0.63970455  0.34896523    -0.63300
O699        O  0.44654063  0.67535714  0.33491273    -0.58100
O700        O  0.53467658  0.66998767  0.36429323    -0.94800
O701        O  0.50315641  0.69047315  0.36116616    -0.93200
O702        O  0.43314581  0.59343382  0.31656072    -0.93600
O703        O  0.46858564  0.57035470  0.29399501    -0.92400
C704        C  0.51875371  0.68002614  0.38234525     1.16700
H705        H  0.43787337  0.65003172  0.24679581     0.32600
H706        H  0.52115502  0.60989863  0.24725772     0.43500
H707        H  0.55423352  0.72529493  0.30020548     0.37000
H708        H  0.53407300  0.70337355  0.12674071     0.33500
H709        H  0.42832909  0.55095972  0.22184915     0.25300
H710        H  0.55007102  0.62577408  0.09618307     0.31200
H711        H  0.59100260  0.72556112  0.13302701     0.37100
H712        H  0.44748269  0.60160957  0.34151364     0.31600
H713        H  0.44305079  0.69277903  0.33760517     0.30500
H714        H  0.49402339  0.74781032  0.31550687     0.32100
H715        H  0.56915372  0.77582773  0.26610098     0.31100
H716        H  0.48266621  0.58054089  0.31846725     0.35100
H717        H  0.55215337  0.61856302  0.34004007     0.27800
H718        H  0.43458534  0.66710028  0.09033800     0.32100
H719        H  0.58676814  0.78669001  0.15230639     0.34900
H720        H  0.42869299  0.66073273  0.31828337     0.27500
H721        H  0.58387842  0.64752497  0.34686026     0.40400
H722        H  0.49936037  0.58917844  0.13872617     0.30500
H723        H  0.44273573  0.57153378  0.17903207     0.38100
H724        H  0.54408646  0.77458320  0.23288799     0.29900
H725        H  0.57593672  0.65963229  0.09951540     0.30000
H726        H  0.45824479  0.70191483  0.09148714     0.30300
Zr727      Zr  0.47682158  0.67631970  0.66650478     2.17500
O728        O  0.47042323  0.71026162  0.61170648    -0.52100
O729        O  0.42235758  0.63674742  0.67014626    -0.75300
O730        O  0.48279200  0.66724827  0.59039586    -0.82100
O731        O  0.45657441  0.71064129  0.75673145    -0.83800
O732        O  0.52430339  0.66062499  0.59010185    -0.79500
O733        O  0.44951560  0.70182018  0.68391038    -0.91100
O734        O  0.41719516  0.59883887  0.71982714    -0.77100
O735        O  0.48319692  0.63278564  0.67263219    -0.86600
O736        O  0.46125099  0.65513202  0.73943727    -0.86200
O737        O  0.53095297  0.69662918  0.65666328    -0.73000
O738        O  0.50914987  0.71571698  0.71466985    -0.85100
Zr739      Zr  0.55195614  0.66641112  0.78732692     2.26400
Zr740      Zr  0.53697177  0.65251564  0.66489791     2.06300
Zr741      Zr  0.49229997  0.69344315  0.78685885     2.10000
Zr742      Zr  0.46761472  0.61142003  0.74566132     1.78800
O743        O  0.51202349  0.74326609  0.81588254    -0.93900
O744        O  0.45468962  0.57024484  0.69758186    -0.41700
O745        O  0.49845498  0.64922455  0.79574743    -0.78400
O746        O  0.52067001  0.62785620  0.73703296    -0.97100
O747        O  0.56882827  0.68967655  0.71542992    -0.90400
O748        O  0.54575568  0.71047446  0.78051162    -0.93200
C749        C  0.40618534  0.61190666  0.69366187     1.00500
C750        C  0.44469785  0.71165366  0.71869389     1.13500
C751        C  0.50329938  0.66423613  0.57067102     1.04300
O752        O  0.51871785  0.59883398  0.65698832    -0.95400
O753        O  0.58687754  0.66725994  0.69399100    -0.91100
O754        O  0.57780799  0.64072099  0.75727003    -0.84300
C755        C  0.58876776  0.64687930  0.71802279     1.10900
O756        O  0.56409415  0.77082910  0.65336064    -0.97300
Zr757      Zr  0.56291769  0.73318169  0.70871133     1.88900
O758        O  0.60166920  0.70954579  0.79924229    -0.74000
O759        O  0.57171706  0.65174660  0.61137267    -0.53300
O760        O  0.60398123  0.74886804  0.65554679    -0.97900
O761        O  0.56891002  0.77792958  0.74273427    -0.55100
O762        O  0.60983296  0.74972795  0.75258623    -0.74500
C763        C  0.61838746  0.73670666  0.78327508     0.97800
O764        O  0.56717003  0.64183804  0.84678407    -0.63300
O765        O  0.44904054  0.67111109  0.83734383    -0.58100
O766        O  0.53541099  0.66413315  0.86311113    -0.94800
O767        O  0.50465291  0.68534405  0.86161307    -0.93200
O768        O  0.43121963  0.58783852  0.80618461    -0.93600
O769        O  0.47364761  0.57359423  0.79218249    -0.92400
C770        C  0.51915569  0.67337529  0.88201146     1.16700
H771        H  0.44079603  0.65060918  0.74620913     0.32600
H772        H  0.52354124  0.61033806  0.74105472     0.43500
H773        H  0.55695123  0.72420627  0.80320197     0.37000
H774        H  0.53705564  0.70669975  0.62769865     0.33500
H775        H  0.44095364  0.55162158  0.71544058     0.25300
H776        H  0.55892118  0.63618584  0.59056986     0.31200
H777        H  0.59565637  0.73311938  0.63369120     0.37100
H778        H  0.41748851  0.56680889  0.79787565     0.31600
H779        H  0.44876292  0.68861745  0.84943550     0.30500
H780        H  0.50516477  0.73913533  0.84698936     0.32100
H781        H  0.57452083  0.77584459  0.77378102     0.31100
H782        H  0.49040043  0.58550397  0.81269881     0.35100
H783        H  0.55753078  0.62030411  0.83974467     0.27800
H784        H  0.45453481  0.69714718  0.59096809     0.32100
H785        H  0.58409512  0.78919175  0.65709773     0.34900
H786        H  0.43067520  0.66186605  0.81846068     0.27500
H787        H  0.58932887  0.64981612  0.84260358     0.40400
H788        H  0.50653200  0.59417785  0.62951663     0.30500
H789        H  0.44130239  0.57223767  0.67451572     0.38100
H790        H  0.54795939  0.77494052  0.74428850     0.29900
H791        H  0.57999355  0.67131157  0.59386323     0.30000
H792        H  0.48960191  0.72059032  0.59444230     0.30300
Zr793      Zr  0.22935712  0.02349462  0.87124934     2.17500
O794        O  0.26582616  0.05749163  0.81528019    -0.52100
O795        O  0.24016509  0.98314217  0.85705114    -0.75300
O796        O  0.28235353  0.04946993  0.90175712    -0.82100
O797        O  0.15893552  0.99583699  0.79389164    -0.83800
O798        O  0.27932973  0.06134059  0.97167731    -0.79500
O799        O  0.21088457  0.02057637  0.79461739    -0.91100
O800        O  0.21222561  0.94248065  0.90386088    -0.77100
O801        O  0.22885583  0.00554653  0.94570737    -0.86600
O802        O  0.18362225  0.97546587  0.87936768    -0.86200
O803        O  0.23028152  0.06124444  0.91598530    -0.73000
O804        O  0.18651052  0.03155059  0.85754994    -0.85100
Zr805      Zr  0.14233382  0.00520134  0.98628239     2.26400
Zr806      Zr  0.22729775  0.04182756  0.99077376     2.06300
Zr807      Zr  0.14085154  0.98355592  0.86893179     2.10000
Zr808      Zr  0.18431743  0.95743025  0.95308755     1.78800
O809        O  0.10700008  0.99042687  0.81598709    -0.93900
O810        O  0.22114901  0.95107973  0.00048690    -0.41700
O811        O  0.14117846  0.96593965  0.94360954    -0.78400
O812        O  0.18297455  0.99329684  0.00046471    -0.97100
O813        O  0.18696809  0.05327891  0.97672984    -0.90400
O814        O  0.14224308  0.02168257  0.91099337    -0.93200
C815        C  0.23125348  0.95577062  0.87167017     1.00500
C816        C  0.18491030  0.00956553  0.77446721     1.13500
C817        C  0.29434328  0.06130629  0.93875860     1.04300
O818        O  0.25695599  0.03053470  0.04612691    -0.95400
O819        O  0.21011385  0.03727644  0.06566600    -0.91100
O820        O  0.15847677  0.01341719  0.06379715    -0.84300
C821        C  0.18404559  0.02527601  0.08468023     1.10900
O822        O  0.22607104  0.10890549  0.85208054    -0.97300
Zr823      Zr  0.18774161  0.06936424  0.90089964     1.88900
O824        O  0.11863516  0.03807338  0.97368620    -0.74000
O825        O  0.25063120  0.09481564  0.00828659    -0.53300
O826        O  0.21273879  0.11623108  0.93918246    -0.97900
O827        O  0.16662738  0.08199255  0.83450578    -0.55100
O828        O  0.14549406  0.07530141  0.92117064    -0.74500
C829        C  0.12290267  0.06096262  0.94746116     0.97800
O830        O  0.10625829  0.98874366  0.04733231    -0.63300
O831        O  0.12201196  0.93165424  0.84872458    -0.58100
O832        O  0.09472443  0.96076569  0.97165823    -0.94800
O833        O  0.08864802  0.96284705  0.89784550    -0.93200
O834        O  0.14685961  0.90787765  0.92880856    -0.93600
O835        O  0.15805982  0.92162138  0.01504855    -0.92400
C836        C  0.07790156  0.95488738  0.93735508     1.16700
H837        H  0.18219688  0.96164677  0.85792370     0.32600
H838        H  0.18192988  0.98504132  0.03032000     0.43500
H839        H  0.12400828  0.02234891  0.90188180     0.37000
H840        H  0.24905046  0.08013876  0.91121291     0.33500
H841        H  0.21342574  0.92894441  0.00341716     0.25300
H842        H  0.26018949  0.09559399  0.03751759     0.31200
H843        H  0.19601588  0.11886834  0.95058894     0.37100
H844        H  0.15679512  0.89520011  0.93358363     0.31600
H845        H  0.10213008  0.91977440  0.86399149     0.30500
H846        H  0.09722796  0.97164672  0.79978154     0.32100
H847        H  0.14457145  0.06703415  0.83537898     0.31100
H848        H  0.14360267  0.92780410  0.02559560     0.35100
H849        H  0.08765318  0.98843059  0.03489733     0.27800
H850        H  0.28103817  0.05054203  0.81353224     0.32100
H851        H  0.23293870  0.09802654  0.83356754     0.34900
H852        H  0.11671286  0.93185001  0.81709132     0.27500
H853        H  0.10021016  0.96721207  0.05477055     0.40400
H854        H  0.25025173  0.00881160  0.04345980     0.30500
H855        H  0.23982101  0.95910179  0.98231493     0.38100
H856        H  0.17453178  0.07609759  0.80973522     0.29900
H857        H  0.26806961  0.10583050  0.98770287     0.30000
H858        H  0.27692129  0.07739288  0.82851352     0.30300
Zr859      Zr  0.22690821  0.01911685  0.37367898     2.17500
O860        O  0.26438163  0.04990706  0.31681205    -0.52100
O861        O  0.23848181  0.97906683  0.36055286    -0.75300
O862        O  0.27934014  0.04863353  0.40577074    -0.82100
O863        O  0.15780345  0.99436123  0.29369097    -0.83800
O864        O  0.27476583  0.05808711  0.47645016    -0.79500
O865        O  0.20971464  0.01997788  0.29729353    -0.91100
O866        O  0.20985875  0.93845021  0.40692665    -0.77100
O867        O  0.22496066  0.00058632  0.44806138    -0.86600
O868        O  0.18084537  0.97084467  0.37964340    -0.86200
O869        O  0.22677109  0.05681631  0.41695676    -0.73000
O870        O  0.18387589  0.02654251  0.35863474    -0.85100
Zr871      Zr  0.13690760  0.00071376  0.48427750     2.26400
Zr872      Zr  0.22201280  0.03691209  0.49137389     2.06300
Zr873      Zr  0.13775756  0.97857517  0.36795559     2.10000
Zr874      Zr  0.17990262  0.95259674  0.45364685     1.78800
O875        O  0.10219146  0.97728266  0.31065329    -0.93900
O876        O  0.21332746  0.94464437  0.50621952    -0.41700
O877        O  0.13697692  0.96139826  0.44281680    -0.78400
O878        O  0.17729599  0.98839627  0.50007328    -0.97100
O879        O  0.18191757  0.04849059  0.47594997    -0.90400
O880        O  0.13832314  0.01700885  0.40844299    -0.93200
C881        C  0.22943544  0.95170657  0.37536716     1.00500
C882        C  0.18431933  0.00926118  0.27577999     1.13500
C883        C  0.29058784  0.05995417  0.44337356     1.04300
O884        O  0.24929241  0.02564329  0.55074390    -0.95400
O885        O  0.20498691  0.03405229  0.56471033    -0.91100
O886        O  0.15336576  0.00935251  0.56229086    -0.84300
C887        C  0.17892065  0.02149822  0.58338314     1.10900
O888        O  0.22364549  0.10957259  0.36022218    -0.97300
Zr889      Zr  0.18427594  0.06465610  0.39994698     1.88900
O890        O  0.11343538  0.03402170  0.46770310    -0.74000
O891        O  0.24289903  0.09022089  0.50557065    -0.53300
O892        O  0.20536061  0.11152481  0.43813407    -0.97900
O893        O  0.17185844  0.07363961  0.32432628    -0.55100
O894        O  0.14045921  0.06974557  0.41357188    -0.74500
C895        C  0.11744398  0.05593080  0.43924653     0.97800
O896        O  0.09457256  0.98092962  0.53640927    -0.63300
O897        O  0.11965402  0.92582038  0.35313566    -0.58100
O898        O  0.08984714  0.95590433  0.46972390    -0.94800
O899        O  0.08535486  0.96074520  0.39597939    -0.93200
O900        O  0.14364738  0.90307399  0.42774035    -0.93600
O901        O  0.15019926  0.91374535  0.51054087    -0.92400
C902        C  0.07369434  0.95186250  0.43499923     1.16700
H903        H  0.18005584  0.95718216  0.35837622     0.32600
H904        H  0.17577208  0.98010286  0.52998817     0.43500
H905        H  0.12030850  0.01747471  0.39765308     0.37000
H906        H  0.24551281  0.07578797  0.41274699     0.33500
H907        H  0.21031416  0.92436648  0.50044745     0.25300
H908        H  0.25369101  0.09257431  0.53409194     0.31200
H909        H  0.18791097  0.11475642  0.44375654     0.37100
H910        H  0.15537590  0.89216337  0.42613720     0.31600
H911        H  0.09712653  0.91626129  0.35400604     0.30500
H912        H  0.09537109  0.95793419  0.29658533     0.32100
H913        H  0.16606648  0.08962234  0.32566107     0.31100
H914        H  0.13440831  0.91876076  0.51901902     0.35100
H915        H  0.09904339  0.96967175  0.56073823     0.27800
H916        H  0.28162454  0.04580693  0.32169815     0.32100
H917        H  0.23578739  0.10232305  0.34506802     0.34900
H918        H  0.12452768  0.92639611  0.32166581     0.27500
H919        H  0.09595312  0.99888986  0.54952858     0.40400
H920        H  0.25253895  0.00944722  0.53993297     0.30500
H921        H  0.23426844  0.95885679  0.49553932     0.38100
H922        H  0.15263226  0.05507106  0.31787893     0.29900
H923        H  0.25938072  0.10151115  0.48359566     0.30000
H924        H  0.27238437  0.07110184  0.32474989     0.30300
Zr925      Zr  0.01793746  0.23148888  0.99279283     2.17500
O926        O  0.05071981  0.26890763  0.04434653    -0.52100
O927        O  0.97813962  0.24381447  0.00826929    -0.75300
O928        O  0.04787455  0.28315384  0.95505519    -0.82100
O929        O  0.98836082  0.16409775  0.07833336    -0.83800
O930        O  0.05966291  0.27782378  0.88574411    -0.79500
O931        O  0.01846822  0.21545613  0.07083140    -0.91100
O932        O  0.93880616  0.21841211  0.96155104    -0.77100
O933        O  0.99961722  0.22989089  0.91929508    -0.86600
O934        O  0.96877967  0.18649158  0.99169098    -0.86200
O935        O  0.05513106  0.23009048  0.94683691    -0.73000
O936        O  0.02434437  0.18808938  0.01057017    -0.85100
Zr937      Zr  0.99679343  0.14098769  0.88837984     2.26400
Zr938      Zr  0.03505393  0.22527547  0.87370445     2.06300
Zr939      Zr  0.97556312  0.14308615  0.00655635     2.10000
Zr940      Zr  0.95077674  0.18603334  0.91871867     1.78800
O941        O  0.98749558  0.11164612  0.05855570    -0.93900
O942        O  0.94659347  0.22000999  0.86175765    -0.41700
O943        O  0.95815062  0.14251020  0.93243125    -0.78400
O944        O  0.98542838  0.18161163  0.87089826    -0.97100
O945        O  0.04563747  0.18484640  0.89124526    -0.90400
O946        O  0.01334020  0.14232845  0.96301162    -0.93200
C947        C  0.95157146  0.23672105  0.99260595     1.00500
C948        C  0.00515433  0.19010167  0.09407768     1.13500
C949        C  0.06085552  0.29393260  0.91690677     1.04300
O950        O  0.03285953  0.25902269  0.81471208    -0.95400
O951        O  0.02449355  0.20787265  0.80067906    -0.91100
O952        O  0.00602059  0.15710098  0.80870972    -0.84300
C953        C  0.01413555  0.18194803  0.78493545     1.10900
O954        O  0.10432820  0.22736795  0.00439636    -0.97300
Zr955      Zr  0.06187945  0.18734168  0.96625392     1.88900
O956        O  0.03199133  0.11942391  0.89851950    -0.74000
O957        O  0.08615853  0.23769441  0.85140492    -0.53300
O958        O  0.10779688  0.20743924  0.92146830    -0.97900
O959        O  0.07535991  0.17182724  0.03755347    -0.55100
O960        O  0.06692188  0.14464432  0.95109069    -0.74500
C961        C  0.05401557  0.12308085  0.92519833     0.97800
O962        O  0.96934959  0.10049825  0.83809655    -0.63300
O963        O  0.92499672  0.12374645  0.03836840    -0.58100
O964        O  0.95800338  0.09070265  0.91252207    -0.94800
O965        O  0.94869762  0.08978198  0.98506150    -0.93200
O966        O  0.90084517  0.15038266  0.94958771    -0.93600
O967        O  0.91061490  0.16167354  0.86448971    -0.92400
C968        C  0.94531272  0.07642346  0.94891940     1.16700
H969        H  0.95497235  0.18613058  0.01330036     0.32600
H970        H  0.97628215  0.17966812  0.84204149     0.43500
H971        H  0.01380700  0.12413361  0.97327785     0.37000
H972        H  0.07454749  0.24838471  0.94860860     0.33500
H973        H  0.95734360  0.24030053  0.87388579     0.25300
H974        H  0.08964734  0.24981077  0.82312382     0.31200
H975        H  0.10257434  0.19317343  0.89782119     0.37100
H976        H  0.88951815  0.16181776  0.94863652     0.31600
H977        H  0.92170598  0.10569641  0.05722561     0.30500
H978        H  0.96876259  0.09969138  0.07645522     0.32100
H979        H  0.07357975  0.15177835  0.03392643     0.31100
H980        H  0.91742856  0.15015505  0.84730987     0.35100
H981        H  0.95699257  0.10683218  0.81879857     0.27800
H982        H  0.04474326  0.28487390  0.04179592     0.32100
H983        H  0.09457448  0.23451138  0.02482319     0.34900
H984        H  0.92739841  0.13876915  0.05954283     0.27500
H985        H  0.98489234  0.10079349  0.81851749     0.40400
H986        H  0.01520702  0.26147926  0.82224241     0.30500
H987        H  0.95996394  0.22120707  0.83763629     0.38100
H988        H  0.05829232  0.16748285  0.05743080     0.29900
H989        H  0.09993328  0.25241560  0.87253788     0.30000
H990        H  0.07148746  0.27852758  0.03154342     0.30300
Zr991      Zr  0.01725071  0.22792370  0.49518769     2.17500
O992        O  0.04984624  0.26341244  0.54904542    -0.52100
O993        O  0.97845275  0.24103298  0.51216999    -0.75300
O994        O  0.04703123  0.28043228  0.45920758    -0.82100
O995        O  0.98911293  0.15721981  0.57796142    -0.83800
O996        O  0.05241685  0.27699498  0.38598382    -0.79500
O997        O  0.01523984  0.20891710  0.57252911    -0.91100
O998        O  0.93586707  0.21325507  0.47224364    -0.77100
O999        O  0.99666149  0.22738987  0.42369688    -0.86600
O1000       O  0.96815335  0.18297418  0.49469226    -0.86200
O1001       O  0.05336075  0.22832476  0.44500202    -0.73000
O1002       O  0.02485634  0.18486698  0.50839198    -0.85100
Zr1003     Zr  0.99475390  0.14074902  0.38458644     2.26400
Zr1004     Zr  0.03100358  0.22501083  0.37334244     2.06300
Zr1005     Zr  0.97566162  0.13984446  0.50434678     2.10000
Zr1006     Zr  0.94801218  0.18337459  0.42333597     1.78800
O1007       O  0.98344139  0.10508148  0.55523740    -0.93900
O1008       O  0.94304982  0.21973423  0.37177758    -0.41700
O1009       O  0.95646535  0.14027855  0.43168284    -0.78400
O1010       O  0.98216515  0.18079281  0.37167951    -0.97100
O1011       O  0.04294598  0.18511245  0.38632489    -0.90400
O1012       O  0.01293856  0.14083774  0.45781100    -0.93200
C1013       C  0.95082182  0.23301918  0.50098536     1.00500
C1014       C  0.00391909  0.18307530  0.59472259     1.13500
C1015       C  0.05624090  0.29214028  0.41955634     1.04300
O1016       O  0.01295908  0.25069885  0.31989603    -0.95400
O1017       O  0.02740697  0.20915903  0.29977380    -0.91100
O1018       O  0.00440593  0.15779793  0.30623094    -0.84300
C1019       C  0.01579492  0.18328183  0.28341240     1.10900
O1020       O  0.10780530  0.22583611  0.49105817    -0.97300
Zr1021     Zr  0.06146992  0.18587125  0.45953958     1.88900
O1022       O  0.02834956  0.11720901  0.39319427    -0.74000
O1023       O  0.08329900  0.24798952  0.34672267    -0.53300
O1024       O  0.10397698  0.20416481  0.40826951    -0.97900
O1025       O  0.07667589  0.17139591  0.52990248    -0.55100
O1026       O  0.06544514  0.14240682  0.44336204    -0.74500
C1027       C  0.05085420  0.12038495  0.41852331     0.97800
O1028       O  0.97117664  0.11077550  0.32077869    -0.63300
O1029       O  0.92421467  0.12168981  0.53193779    -0.58100
O1030       O  0.95641962  0.09007180  0.40636095    -0.94800
O1031       O  0.95022169  0.08726778  0.48037897    -0.93200
O1032       O  0.89908233  0.14385810  0.45272721    -0.93600
O1033       O  0.90751782  0.16011866  0.36918759    -0.92400
C1034       C  0.94603033  0.07504922  0.44303190     1.16700
H1035       H  0.95502280  0.18206734  0.51787923     0.32600
H1036       H  0.97327599  0.17953736  0.34276323     0.43500
H1037       H  0.01332322  0.12251979  0.46742847     0.37000
H1038       H  0.07261306  0.24683718  0.44640083     0.33500
H1039       H  0.92316967  0.21801652  0.37897810     0.25300
H1040       H  0.08484708  0.26312030  0.32312607     0.31200
H1041       H  0.11875666  0.19907714  0.42346250     0.37100
H1042       H  0.89495251  0.15267578  0.47797548     0.31600
H1043       H  0.91365056  0.09950026  0.52915850     0.30500
H1044       H  0.96416173  0.09386532  0.57216545     0.32100
H1045       H  0.09070149  0.16390547  0.52223995     0.31100
H1046       H  0.91414627  0.14882148  0.35116607     0.35100
H1047       H  0.97801036  0.09550354  0.32121310     0.27800
H1048       H  0.04543533  0.28045640  0.54595006     0.32100
H1049       H  0.10071446  0.23668164  0.50923008     0.34900
H1050       H  0.92673776  0.12413779  0.56409985     0.27500
H1051       H  0.94893851  0.09915975  0.32652491     0.40400
H1052       H  0.99186205  0.23521029  0.31276083     0.30500
H1053       H  0.95830725  0.23994200  0.38142731     0.38100
H1054       H  0.05802137  0.15306606  0.54089920     0.29900
H1055       H  0.09612181  0.26018959  0.37093920     0.30000
H1056       H  0.07086305  0.27186048  0.53763708     0.30300
Zr1057     Zr  0.87523707  0.87831790  0.99443675     2.17500
O1058       O  0.89399800  0.91875584  0.04573027    -0.52100
O1059       O  0.93110622  0.89658659  0.98979172    -0.75300
O1060       O  0.86494878  0.86080919  0.07305092    -0.82100
O1061       O  0.87991872  0.93216566  0.89989130    -0.83800
O1062       O  0.83445577  0.80981884  0.07811017    -0.79500
O1063       O  0.88504633  0.92931500  0.97392487    -0.91100
O1064       O  0.93962379  0.86447622  0.95134176    -0.77100
O1065       O  0.87554995  0.83152804  0.99426939    -0.86600
O1066       O  0.89238321  0.87694596  0.92291913    -0.86200
O1067       O  0.82211051  0.84041074  0.00464351    -0.73000
O1068       O  0.83850880  0.88113180  0.94342736    -0.85100
Zr1069     Zr  0.80563825  0.79367572  0.88045394     2.26400
Zr1070     Zr  0.82311525  0.79382035  0.00392565     2.06300
Zr1071     Zr  0.85712026  0.88082419  0.87265851     2.10000
Zr1072     Zr  0.89145389  0.82936738  0.92207168     1.78800
O1073       O  0.83338433  0.90774916  0.83424940    -0.93900
O1074       O  0.90657725  0.79728681  0.96718894    -0.41700
O1075       O  0.85716995  0.83358312  0.86993227    -0.78400
O1076       O  0.84028993  0.78966530  0.93333004    -0.97100
O1077       O  0.78719217  0.79476258  0.95095666    -0.90400
O1078       O  0.80540103  0.84080867  0.88026694    -0.93200
C1079       C  0.94881370  0.88835720  0.97227142     1.00500
C1080       C  0.88731391  0.94442147  0.93735650     1.13500
C1081       C  0.84911676  0.83544994  0.09532703     1.04300
O1082       O  0.84641075  0.76545331  0.03880829    -0.95400
O1083       O  0.79353092  0.74226582  0.98606756    -0.91100
O1084       O  0.77834057  0.74133030  0.91450912    -0.84300
C1085       C  0.77839836  0.72845991  0.95265298     1.10900
O1086       O  0.77749024  0.86955221  0.00408253    -0.97300
Zr1087     Zr  0.78625035  0.84103428  0.95035180     1.88900
O1088       O  0.75517915  0.78507997  0.85944228    -0.74000
O1089       O  0.77895613  0.76968395  0.05298221    -0.53300
O1090       O  0.74479102  0.80724031  0.00037182    -0.97900
O1091       O  0.77510083  0.87931552  0.91572143    -0.55100
O1092       O  0.74226199  0.81204777  0.90212195    -0.74500
C1093       C  0.73646774  0.79362694  0.87139510     0.97800
O1094       O  0.80065665  0.75608316  0.82997387    -0.63300
O1095       O  0.90351846  0.91022084  0.82906990    -0.58100
O1096       O  0.82101704  0.81112593  0.80342807    -0.94800
O1097       O  0.84840737  0.86264197  0.79919729    -0.93200
O1098       O  0.92667005  0.85188894  0.86017856    -0.93600
O1099       O  0.89555596  0.79401826  0.87604628    -0.92400
C1100       C  0.83580344  0.83696212  0.78168156     1.16700
H1101       H  0.91215782  0.89389591  0.91539325     0.32600
H1102       H  0.83984536  0.77049392  0.93182785     0.43500
H1103       H  0.79326702  0.84285482  0.85640471     0.37000
H1104       H  0.81475484  0.84217270  0.03261340     0.33500
H1105       H  0.92542828  0.80021814  0.95320310     0.25300
H1106       H  0.77469011  0.78610877  0.05958399     0.31200
H1107       H  0.73779253  0.78658210  0.99074394     0.37100
H1108       H  0.92682319  0.87120084  0.85208357     0.31600
H1109       H  0.89887021  0.92335215  0.80836871     0.30500
H1110       H  0.81513886  0.89206718  0.81958694     0.32100
H1111       H  0.77430913  0.87643916  0.88373366     0.31100
H1112       H  0.87828575  0.78789797  0.85513616     0.35100
H1113       H  0.80985813  0.74469941  0.84552546     0.27800
H1114       H  0.90822313  0.91566090  0.06589600     0.32100
H1115       H  0.75550741  0.86328635  0.00187305     0.34900
H1116       H  0.91890511  0.92436232  0.84940331     0.27500
H1117       H  0.77853445  0.74146460  0.82871162     0.40400
H1118       H  0.85323983  0.75851897  0.01402713     0.30500
H1119       H  0.91362012  0.80729461  0.99538518     0.38100
H1120       H  0.79396948  0.89881764  0.91953516     0.29900
H1121       H  0.76153979  0.75634955  0.03446969     0.30000
H1122       H  0.87640760  0.91479974  0.06421847     0.30300
Zr1123     Zr  0.87102553  0.87949865  0.49068589     2.17500
O1124       O  0.89105620  0.92098366  0.54028279    -0.52100
O1125       O  0.92657531  0.89735476  0.48223839    -0.75300
O1126       O  0.86522808  0.86242210  0.56967373    -0.82100
O1127       O  0.87409375  0.93224940  0.39516581    -0.83800
O1128       O  0.83594793  0.81136394  0.57735356    -0.79500
O1129       O  0.87764512  0.92932080  0.46978450    -0.91100
O1130       O  0.93296782  0.86557324  0.43984978    -0.77100
O1131       O  0.87109843  0.83273887  0.48874797    -0.86600
O1132       O  0.88470375  0.87723674  0.41718553    -0.86200
O1133       O  0.81875673  0.84158959  0.50695716    -0.73000
O1134       O  0.83249538  0.88180731  0.44349782    -0.85100
Zr1135     Zr  0.79574911  0.79309446  0.38287909     2.26400
Zr1136     Zr  0.81952600  0.79489666  0.50413660     2.06300
Zr1137     Zr  0.84725203  0.88020123  0.37053674     2.10000
Zr1138     Zr  0.88349201  0.82960697  0.41493308     1.78800
O1139       O  0.81645830  0.90154054  0.33802916    -0.93900
O1140       O  0.90201258  0.79878701  0.45576811    -0.41700
O1141       O  0.84678258  0.83277291  0.36713119    -0.78400
O1142       O  0.83289384  0.78985598  0.43152037    -0.97100
O1143       O  0.78138741  0.79566167  0.45549019    -0.90400
O1144       O  0.79606367  0.84057412  0.38386112    -0.93200
C1145       C  0.94334091  0.88887748  0.46254616     1.00500
C1146       C  0.88075645  0.94424174  0.43283580     1.13500
C1147       C  0.85164380  0.83726899  0.59333883     1.04300
O1148       O  0.84797930  0.76977878  0.53173164    -0.95400
O1149       O  0.78687706  0.74293124  0.48978599    -0.91100
O1150       O  0.76929594  0.74098361  0.41937294    -0.84300
C1151       C  0.77030129  0.72855194  0.45764182     1.10900
O1152       O  0.77428042  0.87136796  0.51121805    -0.97300
Zr1153     Zr  0.78084365  0.84203477  0.45643924     1.88900
O1154       O  0.74599800  0.78751410  0.36483058    -0.74000
O1155       O  0.77754865  0.76851202  0.55657211    -0.53300
O1156       O  0.74299886  0.80720837  0.51034094    -0.97900
O1157       O  0.76780911  0.88025015  0.42733962    -0.55100
O1158       O  0.73527085  0.81471117  0.41051247    -0.74500
C1159       C  0.72841866  0.79685103  0.37877084     0.97800
O1160       O  0.78246701  0.74995752  0.33864259    -0.63300
O1161       O  0.88848768  0.91206574  0.31899658    -0.58100
O1162       O  0.81093720  0.80922588  0.30480651    -0.94800
O1163       O  0.83991120  0.86065964  0.29801420    -0.93200
O1164       O  0.91597335  0.85176062  0.35009154    -0.93600
O1165       O  0.88216939  0.79207936  0.36764698    -0.92400
C1166       C  0.82671023  0.83446260  0.28191217     1.16700
H1167       H  0.90418539  0.89413950  0.40823116     0.32600
H1168       H  0.83210693  0.77053667  0.42968799     0.43500
H1169       H  0.78326081  0.84293727  0.36134732     0.37000
H1170       H  0.81294399  0.84362442  0.53596717     0.33500
H1171       H  0.92275985  0.80609736  0.44401171     0.25300
H1172       H  0.78492906  0.75890086  0.57964746     0.31200
H1173       H  0.73104607  0.78808578  0.49533186     0.37100
H1174       H  0.91738949  0.87186683  0.34436648     0.31600
H1175       H  0.88343099  0.92766382  0.30669980     0.30500
H1176       H  0.82228513  0.90579445  0.30648530     0.32100
H1177       H  0.76340305  0.87639599  0.39572724     0.31100
H1178       H  0.86102948  0.78170920  0.35614994     0.35100
H1179       H  0.77041474  0.75198057  0.31352522     0.27800
H1180       H  0.90555018  0.91812288  0.56017670     0.32100
H1181       H  0.75201753  0.86373936  0.51268845     0.34900
H1182       H  0.90679155  0.92325554  0.33742642     0.27500
H1183       H  0.80191646  0.75380246  0.32555878     0.40400
H1184       H  0.84878467  0.75870569  0.50667879     0.30500
H1185       H  0.90547319  0.80572825  0.48614001     0.38100
H1186       H  0.78727657  0.89961541  0.42741638     0.29900
H1187       H  0.77624190  0.78465762  0.57134894     0.30000
H1188       H  0.87373035  0.91712023  0.55930486     0.30300
C1189       C  0.84271750  0.81374525  0.71630653    -0.09900
C1190       C  0.84008565  0.83741095  0.73340723     0.06300
C1191       C  0.84352210  0.86187190  0.70425632    -0.03700
C1192       C  0.84937518  0.86217083  0.65948676    -0.08100
C1193       C  0.85126500  0.83819879  0.64212720     0.05400
C1194       C  0.84813094  0.81384382  0.67132814    -0.03200
Br1195     Br  0.85168090  0.78027714  0.65256391    -0.02900
H1196       H  0.84086028  0.79511757  0.73813906     0.09300
H1197       H  0.85083980  0.88063028  0.63764808     0.07300
Br1198     Br  0.83797543  0.89451330  0.72203310    -0.03300
C1199       C  0.81540408  0.81562754  0.16107392    -0.09900
C1200       C  0.84466888  0.83529867  0.14346952     0.06300
C1201       C  0.86781922  0.85437639  0.17194408    -0.03700
C1202       C  0.86133388  0.85356060  0.21672717    -0.08100
C1203       C  0.83202321  0.83388791  0.23425081     0.05400
C1204       C  0.80891238  0.81483997  0.20573848    -0.03200
Br1205     Br  0.76754637  0.78906437  0.22480971    -0.02900
H1206       H  0.79707219  0.80121142  0.13963379     0.09300
H1207       H  0.87951441  0.86819749  0.23820058     0.07300
Br1208     Br  0.90895689  0.88066043  0.15233891    -0.03300
C1209       C  0.90326052  0.02357640  0.46789458    -0.09900
C1210       C  0.92879877  0.04145905  0.44085777     0.06300
C1211       C  0.93742802  0.02679821  0.41071440    -0.03700
C1212       C  0.92009711  0.99555293  0.40679212    -0.08100
C1213       C  0.89489957  0.97765677  0.43398299     0.05400
C1214       C  0.88657429  0.99191789  0.46504477    -0.03200
Br1215     Br  0.85213892  0.96935626  0.50341972    -0.02900
H1216       H  0.89620724  0.03421077  0.49119827     0.09300
H1217       H  0.92755588  0.98486732  0.38412309     0.07300
Br1218     Br  0.97486460  0.04695032  0.37781403    -0.03300
C1219       C  0.01912859  0.16375456  0.71289485    -0.09900
C1220       C  0.01054922  0.18125058  0.73637499     0.06300
C1221       C  0.99953160  0.19900100  0.71267018    -0.03700
C1222       C  0.99871787  0.20008889  0.66663718    -0.08100
C1223       C  0.00750510  0.18283651  0.64316642     0.05400
C1224       C  0.01737211  0.16414605  0.66672342    -0.03200
Br1225     Br  0.02971567  0.13944233  0.63774633    -0.02900
H1226       H  0.02757044  0.15002410  0.73045192     0.09300
H1227       H  0.98999429  0.21359513  0.64908816     0.07300
Br1228     Br  0.98239397  0.22007352  0.74080889    -0.03300
C1229       C  0.98297474  0.17176853  0.16843457    -0.09900
C1230       C  0.00897541  0.18988145  0.14246539     0.06300
C1231       C  0.03773494  0.20485007  0.16318906    -0.03700
C1232       C  0.03983217  0.20159873  0.20919658    -0.08100
C1233       C  0.01368758  0.18328764  0.23496380     0.05400
C1234       C  0.98505436  0.16860034  0.21416120    -0.03200
Br1235     Br  0.94765754  0.14620294  0.24673941    -0.02900
H1236       H  0.96072038  0.16026812  0.15301403     0.09300
H1237       H  0.06192656  0.21343393  0.22496003     0.07300
Br1238     Br  0.07486906  0.22847578  0.13038853    -0.03300
C1239       C  0.90299010  0.99053077  0.98084298    -0.09900
C1240       C  0.89953499  0.97804777  0.93940387     0.06300
C1241       C  0.90901041  0.99836620  0.90165060    -0.03700
C1242       C  0.92204455  0.02962357  0.90606383    -0.08100
C1243       C  0.92682800  0.04234420  0.94750239     0.05400
C1244       C  0.91616252  0.02198882  0.98520383    -0.03200
Br1245     Br  0.91886768  0.03501074  0.04383217    -0.02900
H1246       H  0.89565295  0.97574279  0.01053843     0.09300
H1247       H  0.92934607  0.04418700  0.87618537     0.07300
Br1248     Br  0.90709610  0.98610307  0.84261057    -0.03300
C1249       C  0.02625831  0.90885706  0.46742759    -0.09900
C1250       C  0.04012933  0.93630572  0.44171641     0.06300
C1251       C  0.02231208  0.94991512  0.42795090    -0.03700
C1252       C  0.99107352  0.93549531  0.43860866    -0.08100
C1253       C  0.97702084  0.90735923  0.46268372     0.05400
C1254       C  0.99500643  0.89413592  0.47708312    -0.03200
Br1255     Br  0.97753882  0.85540966  0.50909100    -0.02900
H1256       H  0.03972470  0.89847224  0.47935868     0.09300
H1257       H  0.97743282  0.94559701  0.42625624     0.07300
Br1258     Br  0.03967851  0.98841775  0.39551051    -0.03300
C1259       C  0.08059274  0.06978045  0.46956809    -0.09900
C1260       C  0.09409311  0.06576204  0.43300903     0.06300
C1261       C  0.08742704  0.07437811  0.39032321    -0.03700
C1262       C  0.07105411  0.09016153  0.38548898    -0.08100
C1263       C  0.06040214  0.09698826  0.42245856     0.05400
C1264       C  0.06371886  0.08508464  0.46455259    -0.03200
Br1265     Br  0.04611784  0.08964959  0.51658367    -0.02900
H1266       H  0.08450293  0.06249768  0.50230017     0.09300
H1267       H  0.06803593  0.09845696  0.35296173     0.07300
Br1268     Br  0.09961413  0.06512306  0.33691335    -0.03300
C1269       C  0.20425169  0.01715831  0.65269450    -0.09900
C1270       C  0.17958984  0.01917625  0.63243713     0.06300
C1271       C  0.15687090  0.01816268  0.65956295    -0.03700
C1272       C  0.15941422  0.01551981  0.70555313    -0.08100
C1273       C  0.18411239  0.01342976  0.72562759     0.05400
C1274       C  0.20656261  0.01405496  0.69843505    -0.03200
Br1275     Br  0.23957123  0.00816579  0.72096738    -0.02900
H1276       H  0.22164474  0.01704925  0.63272649     0.09300
H1277       H  0.14188298  0.01516761  0.72579475     0.07300
Br1278     Br  0.12250833  0.02129256  0.63641005    -0.03300
C1279       C  0.20784009  0.02015203  0.15541736    -0.09900
C1280       C  0.18411154  0.02313947  0.13387165     0.06300
C1281       C  0.16091622  0.02236902  0.15988973    -0.03700
C1282       C  0.16172142  0.01830134  0.20593271    -0.08100
C1283       C  0.18525175  0.01484260  0.22717062     0.05400
C1284       C  0.20843346  0.01572166  0.20126748    -0.03200
Br1285     Br  0.23974235  0.00776324  0.22574818    -0.02900
H1286       H  0.22557177  0.01998447  0.13631703     0.09300
H1287       H  0.14377886  0.01788743  0.22529603     0.07300
Br1288     Br  0.12823363  0.02793542  0.13530028    -0.03300
C1289       C  0.03312580  0.91515359  0.97960121    -0.09900
C1290       C  0.04449488  0.93809322  0.94546022     0.06300
C1291       C  0.02429040  0.94668062  0.92413352    -0.03700
C1292       C  0.99345892  0.93206693  0.93675835    -0.08100
C1293       C  0.98208950  0.90870510  0.97024217     0.05400
C1294       C  0.00223842  0.90015442  0.99138254    -0.03200
Br1295     Br  0.98826677  0.86723786  0.03530625    -0.02900
H1296       H  0.04830867  0.90845651  0.99678520     0.09300
H1297       H  0.97793788  0.93800227  0.91886367     0.07300
Br1298     Br  0.03754440  0.97865548  0.87860389    -0.03300
C1299       C  0.09028709  0.07543540  0.90081886    -0.09900
C1300       C  0.09970421  0.07077309  0.94351518     0.06300
C1301       C  0.09019483  0.07964086  0.97980688    -0.03700
C1302       C  0.07274431  0.09414861  0.97284767    -0.08100
C1303       C  0.06523218  0.10093798  0.92991031     0.05400
C1304       C  0.07340733  0.09061106  0.89373003    -0.03200
Br1305     Br  0.06587251  0.10016580  0.83411315    -0.02900
H1306       H  0.09766915  0.06878707  0.87250894     0.09300
H1307       H  0.06672176  0.10202396  0.00116773     0.07300
Br1308     Br  0.10420283  0.07659521  0.03844711    -0.03300
C1309       C  0.66101705  0.78196811  0.81822481    -0.09900
C1310       C  0.64970265  0.75312465  0.80184786     0.06300
C1311       C  0.66758482  0.73868323  0.80703114    -0.03700
C1312       C  0.69531224  0.75229376  0.82972002    -0.08100
C1313       C  0.70639295  0.78064663  0.84781832     0.05400
C1314       C  0.68903449  0.79575587  0.84108859    -0.03200
Br1315     Br  0.70268241  0.83556916  0.86063621    -0.02900
H1316       H  0.64767889  0.79348489  0.81423962     0.09300
H1317       H  0.70820101  0.74030336  0.83347974     0.07300
Br1318     Br  0.65575226  0.70055884  0.78229985    -0.03300
C1319       C  0.50696934  0.69311467  0.50016171    -0.09900
C1320       C  0.50460753  0.66690473  0.52231215     0.06300
C1321       C  0.50841345  0.64606737  0.49859003    -0.03700
C1322       C  0.51433618  0.65153365  0.45343069    -0.08100
C1323       C  0.51632408  0.67748766  0.43090783     0.05400
C1324       C  0.51291482  0.69866313  0.45484045    -0.03200
Br1325     Br  0.51825390  0.73648786  0.42849005    -0.02900
H1326       H  0.50535407  0.70988973  0.51847256     0.09300
H1327       H  0.51642095  0.63484942  0.43557540     0.07300
Br1328     Br  0.50423735  0.60897261  0.52581911    -0.03300
C1329       C  0.51127261  0.64436620  0.00225290    -0.09900
C1330       C  0.50678000  0.66600963  0.02250206     0.06300
C1331       C  0.50740972  0.69031659  0.99641184    -0.03700
C1332       C  0.51201947  0.69227948  0.95105623    -0.08100
C1333       C  0.51633129  0.67055599  0.93059230     0.05400
C1334       C  0.51576195  0.64623583  0.95676933    -0.03200
Br1335     Br  0.51863852  0.61366648  0.93278645    -0.02900
H1336       H  0.51099370  0.62561509  0.02199505     0.09300
H1337       H  0.51261153  0.71129369  0.93165197     0.07300
Br1338     Br  0.50482688  0.72297194  0.02062300    -0.03300
C1339       C  0.64342904  0.76169669  0.35336963    -0.09900
C1340       C  0.64319907  0.75771896  0.30796994     0.06300
C1341       C  0.67115293  0.76971354  0.28560915    -0.03700
C1342       C  0.69858710  0.78382972  0.30910242    -0.08100
C1343       C  0.69892966  0.78649741  0.35499578     0.05400
C1344       C  0.67092753  0.77632475  0.37683077    -0.03200
Br1345     Br  0.66852616  0.77945236  0.43897403    -0.02900
H1346       H  0.62201304  0.75260330  0.37093524     0.09300
H1347       H  0.71984511  0.79182666  0.29157437     0.07300
Br1348     Br  0.67305981  0.76446627  0.22409195    -0.03300
C1349       C  0.32190799  0.55583521  0.70461846    -0.09900
C1350       C  0.31121487  0.57310244  0.72460206     0.06300
C1351       C  0.33164130  0.60410139  0.72976382    -0.03700
C1352       C  0.36206424  0.61697518  0.71573585    -0.08100
C1353       C  0.37282752  0.59942580  0.69679860     0.05400
C1354       C  0.35238608  0.56857483  0.69133760    -0.03200
Br1355     Br  0.36497188  0.54311923  0.66506615    -0.02900
H1356       H  0.30637524  0.53220273  0.69923701     0.09300
H1357       H  0.37772701  0.64056557  0.72130021     0.07300
Br1358     Br  0.31906650  0.63015610  0.75406890    -0.03300
C1359       C  0.06241475  0.34297220  0.89631491    -0.09900
C1360       C  0.07831817  0.32696020  0.90522241     0.06300
C1361       C  0.10854145  0.33983868  0.88947051    -0.03700
C1362       C  0.12193373  0.36753268  0.86434586    -0.08100
C1363       C  0.10574539  0.38317235  0.85383152     0.05400
C1364       C  0.07563051  0.37063722  0.87083464    -0.03200
Br1365     Br  0.04963790  0.38790051  0.85640803    -0.02900
H1366       H  0.03873645  0.33277524  0.90624677     0.09300
H1367       H  0.14504498  0.37664187  0.85241908     0.07300
Br1368     Br  0.13194184  0.31936454  0.89960295    -0.03300
C1369       C  0.18784780  0.50603479  0.46697150    -0.09900
C1370       C  0.16393498  0.50720962  0.44330483     0.06300
C1371       C  0.14198323  0.51065434  0.46623050    -0.03700
C1372       C  0.14444082  0.51290696  0.51189496    -0.08100
C1373       C  0.16858731  0.51204004  0.53540537     0.05400
C1374       C  0.19032329  0.50834821  0.51250262    -0.03200
Br1375     Br  0.22267228  0.50415966  0.54137652    -0.02900
H1376       H  0.20463450  0.50291461  0.44995593     0.09300
H1377       H  0.12755492  0.51576050  0.52911831     0.07300
Br1378     Br  0.10932822  0.51436509  0.43736052    -0.03300
C1379       C  0.14748858  0.51542315  0.96252874    -0.09900
C1380       C  0.17133407  0.51297580  0.94394259     0.06300
C1381       C  0.19459190  0.51302497  0.97125623    -0.03700
C1382       C  0.19357140  0.51551664  0.01635027    -0.08100
C1383       C  0.16932324  0.51710565  0.03488559     0.05400
C1384       C  0.14625125  0.51734035  0.00777926    -0.03200
Br1385     Br  0.11330596  0.52131177  0.03056689    -0.02900
H1386       H  0.12978447  0.51594718  0.94177294     0.09300
H1387       H  0.21107682  0.51479768  0.03730870     0.07300
Br1388     Br  0.22667253  0.50685891  0.95021400    -0.03300
C1389       C  0.32299823  0.59947811  0.20100164    -0.09900
C1390       C  0.30759877  0.57209455  0.22669029     0.06300
C1391       C  0.32279575  0.55565881  0.23811852    -0.03700
C1392       C  0.35298777  0.56696870  0.22470776    -0.08100
C1393       C  0.36923607  0.59523394  0.20079622     0.05400
C1394       C  0.35352434  0.61135805  0.18843073    -0.03200
Br1395     Br  0.37198562  0.65013963  0.15634417    -0.02900
H1396       H  0.31108181  0.61180269  0.19068627     0.09300
H1397       H  0.36410952  0.55380530  0.23446006     0.07300
Br1398     Br  0.30309953  0.51720156  0.27073462    -0.03300
C1399       C  0.10435450  0.33991366  0.40372657    -0.09900
C1400       C  0.07245943  0.32521591  0.40875802     0.06300
C1401       C  0.05639705  0.33875942  0.38763856    -0.03700
C1402       C  0.07194397  0.36585755  0.36151650    -0.08100
C1403       C  0.10370541  0.37991781  0.35475543     0.05400
C1404       C  0.11999984  0.36701258  0.37732123    -0.03200
Br1405     Br  0.16355311  0.38547334  0.37388413    -0.02900
H1406       H  0.11698003  0.32927024  0.41826758     0.09300
H1407       H  0.05887001  0.37536768  0.34493100     0.07300
Br1408     Br  0.01266911  0.31927379  0.39009549    -0.03300
C1409       C  0.22339736  0.90728031  0.84183949    -0.09900
C1410       C  0.24270496  0.93836336  0.84793289     0.06300
C1411       C  0.27194456  0.95276235  0.82804985    -0.03700
C1412       C  0.28126559  0.93620561  0.80381701    -0.08100
C1413       C  0.26219097  0.90518090  0.79796530     0.05400
C1414       C  0.23275602  0.89078812  0.81686429    -0.03200
Br1415     Br  0.20507103  0.84848062  0.81147737    -0.02900
H1416       H  0.20071551  0.89580006  0.85604869     0.09300
H1417       H  0.30405231  0.94769974  0.78989206     0.07300
Br1418     Br  0.30133160  0.99470535  0.83411328    -0.03300
C1419       C  0.22756496  0.68823765  0.68732964    -0.09900
C1420       C  0.25344805  0.70002872  0.71454882     0.06300
C1421       C  0.26726310  0.68221348  0.72636999    -0.03700
C1422       C  0.25534199  0.65331186  0.71041027    -0.08100
C1423       C  0.22938047  0.64141688  0.68314527     0.05400
C1424       C  0.21529459  0.65917964  0.67201531    -0.03200
Br1425     Br  0.17992985  0.64563028  0.63479183    -0.02900
H1426       H  0.21715747  0.70201430  0.67719465     0.09300
H1427       H  0.26595593  0.63974367  0.72042455     0.07300
Br1428     Br  0.30353902  0.69696758  0.76175484    -0.03300
C1429       C  0.38939452  0.74103983  0.73883390    -0.09900
C1430       C  0.39014409  0.75593514  0.69781566     0.06300
C1431       C  0.40737461  0.75477129  0.66346232    -0.03700
C1432       C  0.42419952  0.73956916  0.67085746    -0.08100
C1433       C  0.42477785  0.72579484  0.71266308     0.05400
C1434       C  0.40623071  0.72587224  0.74645791    -0.03200
Br1435     Br  0.40212382  0.70533241  0.80323333    -0.02900
H1436       H  0.37645598  0.74221543  0.76574457     0.09300
H1437       H  0.43799252  0.73972870  0.64409791     0.07300
Br1438     Br  0.41098140  0.77615756  0.60755105    -0.03300
C1439       C  0.32839462  0.85754986  0.49669783    -0.09900
C1440       C  0.33580597  0.83677247  0.51894198     0.06300
C1441       C  0.34049516  0.81683013  0.49447680    -0.03700
C1442       C  0.33639151  0.81704060  0.44885159    -0.08100
C1443       C  0.32868192  0.83759709  0.42656720     0.05400
C1444       C  0.32518490  0.85842526  0.45093827    -0.03200
Br1445     Br  0.31512258  0.88796999  0.42453547    -0.02900
H1446       H  0.32478877  0.87311637  0.51508942     0.09300
H1447       H  0.34021796  0.80161727  0.43047113     0.07300
Br1448     Br  0.35532640  0.79097954  0.52067172    -0.03300
C1449       C  0.30525145  0.81350381  0.99895767    -0.09900
C1450       C  0.33345478  0.83254707  0.01803145     0.06300
C1451       C  0.35831908  0.85235954  0.99076524    -0.03700
C1452       C  0.35426432  0.85391609  0.94519132    -0.08100
C1453       C  0.32585372  0.83537919  0.92604385     0.05400
C1454       C  0.30124874  0.81461755  0.95335701    -0.03200
Br1455     Br  0.26123587  0.78816211  0.93101297    -0.02900
H1456       H  0.28597693  0.79830446  0.01974928     0.09300
H1457       H  0.37363407  0.86902286  0.92450937     0.07300
Br1458     Br  0.39867958  0.87607161  0.01377287    -0.03300
C1459       C  0.27977492  0.93191470  0.30827059    -0.09900
C1460       C  0.26061580  0.90092792  0.30179899     0.06300
C1461       C  0.23110162  0.88665111  0.32058396    -0.03700
C1462       C  0.22184336  0.90311826  0.34592110    -0.08100
C1463       C  0.24117921  0.93415660  0.35235518     0.05400
C1464       C  0.27053663  0.94841876  0.33289001    -0.03200
Br1465     Br  0.30025103  0.99004551  0.34038143    -0.02900
H1466       H  0.30261719  0.94346227  0.29455111     0.09300
H1467       H  0.19908929  0.89168452  0.35988201     0.07300
Br1468     Br  0.20283909  0.84463643  0.31403459    -0.03300
C1469       C  0.23175661  0.68734734  0.18656034    -0.09900
C1470       C  0.25663123  0.69783853  0.21578166     0.06300
C1471       C  0.26917263  0.67890033  0.22804419    -0.03700
C1472       C  0.25626537  0.64986892  0.21195083    -0.08100
C1473       C  0.23099041  0.63927993  0.18331440     0.05400
C1474       C  0.21919248  0.65865796  0.17002489    -0.03200
Br1475     Br  0.18731940  0.64801942  0.12695649    -0.02900
H1476       H  0.22257949  0.70202406  0.17532345     0.09300
H1477       H  0.26556273  0.63523709  0.22282273     0.07300
Br1478     Br  0.30488476  0.69205243  0.26419419    -0.03300
C1479       C  0.38668946  0.73746595  0.21808223    -0.09900
C1480       C  0.39626968  0.76124139  0.18551675     0.06300
C1481       C  0.42265145  0.76936262  0.16098112    -0.03700
C1482       C  0.43931253  0.75417972  0.16985957    -0.08100
C1483       C  0.43061207  0.73133871  0.20398975     0.05400
C1484       C  0.40339760  0.72233053  0.22733361    -0.03200
Br1485     Br  0.38733466  0.68911816  0.27104720    -0.02900
H1486       H  0.36701060  0.73177452  0.23808054     0.09300
H1487       H  0.45980173  0.76101365  0.15092891     0.07300
Br1488     Br  0.43752773  0.80199000  0.11655183    -0.03300
C1489       C  0.61863323  0.61460749  0.63509460    -0.09900
C1490       C  0.59576917  0.58398654  0.63763634     0.06300
C1491       C  0.57226622  0.57467741  0.66953676    -0.03700
C1492       C  0.57308222  0.59502514  0.69897741    -0.08100
C1493       C  0.59523749  0.62559006  0.69559771     0.05400
C1494       C  0.61802799  0.63546872  0.66279561    -0.03200
Br1495     Br  0.64865389  0.67724110  0.65423972    -0.02900
H1496       H  0.63719180  0.62236216  0.61181064     0.09300
H1497       H  0.55461909  0.58728656  0.72246263     0.07300
Br1498     Br  0.53662497  0.53515686  0.67361353    -0.03300
C1499       C  0.74774660  0.64934520  0.50388621    -0.09900
C1500       C  0.71655827  0.63752133  0.51254048     0.06300
C1501       C  0.70257549  0.65495149  0.49801623    -0.03700
C1502       C  0.71977577  0.68348660  0.47564261    -0.08100
C1503       C  0.75110862  0.69550006  0.46788769     0.05400
C1504       C  0.76495998  0.67801181  0.48228554    -0.03200
Br1505     Br  0.80797788  0.69329126  0.47558074    -0.02900
H1506       H  0.75895557  0.63642577  0.51465095     0.09300
H1507       H  0.70912922  0.69727875  0.46722609     0.07300
Br1508     Br  0.66117472  0.64278835  0.51297901    -0.03300
C1509       C  0.61629877  0.49582505  0.83413966    -0.09900
C1510       C  0.63939609  0.49486381  0.81040008     0.06300
C1511       C  0.66695744  0.50140206  0.83241972    -0.03700
C1512       C  0.67063554  0.50811535  0.87692356    -0.08100
C1513       C  0.64747679  0.50881716  0.90072528     0.05400
C1514       C  0.61992324  0.50230981  0.87880207    -0.03200
Br1515     Br  0.58533720  0.49905511  0.90871252    -0.02900
H1516       H  0.59500739  0.49108332  0.81796579     0.09300
H1517       H  0.69197356  0.51300560  0.89307855     0.07300
Br1518     Br  0.70147151  0.50383370  0.80332549    -0.03300
C1519       C  0.66112565  0.49303002  0.33147066    -0.09900
C1520       C  0.63654525  0.49399546  0.30967185     0.06300
C1521       C  0.61738354  0.50085817  0.33420913    -0.03700
C1522       C  0.62311250  0.50651157  0.37895873    -0.08100
C1523       C  0.64792758  0.50599054  0.40059297     0.05400
C1524       C  0.66728620  0.49941844  0.37598043    -0.03200
Br1525     Br  0.70431113  0.50159895  0.39917807    -0.02900
H1526       H  0.67671309  0.48884333  0.31321108     0.09300
H1527       H  0.60772205  0.51102982  0.39710979     0.07300
Br1528     Br  0.58239189  0.50236283  0.30973854    -0.03300
C1529       C  0.62210049  0.61920677  0.13986044    -0.09900
C1530       C  0.59827993  0.58935965  0.13589460     0.06300
C1531       C  0.57210214  0.57899895  0.16301632    -0.03700
C1532       C  0.57127582  0.59715077  0.19500457    -0.08100
C1533       C  0.59465243  0.62697132  0.19842470     0.05400
C1534       C  0.62002503  0.63815447  0.16987440    -0.03200
Br1535     Br  0.65243433  0.67920477  0.17127060    -0.02900
H1536       H  0.64262875  0.62764762  0.12034550     0.09300
H1537       H  0.55102283  0.58859818  0.21515411     0.07300
Br1538     Br  0.53540063  0.54095639  0.15639122    -0.03300
C1539       C  0.71162364  0.65409905  0.99014318    -0.09900
C1540       C  0.72654896  0.63826113  0.00723461     0.06300
C1541       C  0.75805587  0.65077663  0.99896748    -0.03700
C1542       C  0.77408775  0.67911548  0.97620782    -0.08100
C1543       C  0.75942427  0.69555499  0.96132332     0.05400
C1544       C  0.72783483  0.68264528  0.96793391    -0.03200
Br1545     Br  0.70672783  0.70484914  0.95219797    -0.02900
H1546       H  0.68745101  0.64492978  0.99602651     0.09300
H1547       H  0.79857080  0.68920582  0.97226625     0.07300
Br1548     Br  0.78065050  0.63059458  0.01767033    -0.03300
C1549       C  0.59870623  0.31904974  0.62961898    -0.09900
C1550       C  0.56775022  0.30006805  0.62023166     0.06300
C1551       C  0.54710182  0.31097112  0.62317785    -0.03700
C1552       C  0.55755508  0.34065377  0.63460503    -0.08100
C1553       C  0.58878113  0.36045605  0.64205858     0.05400
C1554       C  0.60948100  0.34924091  0.63964834    -0.03200
Br1555     Br  0.65278854  0.37443815  0.64536847    -0.02900
H1556       H  0.61462252  0.31048156  0.62834349     0.09300
H1557       H  0.54125235  0.34875339  0.63573768     0.07300
Br1558     Br  0.50430946  0.28596962  0.61203328    -0.03300
C1559       C  0.37581584  0.97940612  0.64604791    -0.09900
C1560       C  0.38879417  0.96946822  0.68064886     0.06300
C1561       C  0.42034430  0.98688372  0.68884845    -0.03700
C1562       C  0.43752390  0.01457011  0.66491017    -0.08100
C1563       C  0.42410941  0.02478431  0.63161423     0.05400
C1564       C  0.39322771  0.00664952  0.62151680    -0.03200
Br1565     Br  0.37371470  0.01904446  0.57593087    -0.02900
H1566       H  0.35186075  0.96591395  0.63801421     0.09300
H1567       H  0.46135058  0.02863737  0.67313852     0.07300
Br1568     Br  0.44164235  0.97349836  0.73005512    -0.03300
C1569       C  0.33651868  0.10681949  0.46373739    -0.09900
C1570       C  0.32383619  0.07662134  0.45196646     0.06300
C1571       C  0.33985451  0.06089021  0.46334858    -0.03700
C1572       C  0.36717390  0.07486753  0.48736903    -0.08100
C1573       C  0.37874400  0.10432917  0.50206477     0.05400
C1574       C  0.36363590  0.12073237  0.48828469    -0.03200
Br1575     Br  0.37895991  0.16223854  0.50099158    -0.02900
H1576       H  0.32418274  0.11909381  0.45607419     0.09300
H1577       H  0.37862373  0.06194630  0.49650695     0.07300
Br1578     Br  0.32330298  0.01901208  0.45197030    -0.03300
C1579       C  0.48209232  0.13869305  0.83568998    -0.09900
C1580       C  0.51066343  0.15569321  0.81489682     0.06300
C1581       C  0.53656140  0.17353927  0.84054938    -0.03700
C1582       C  0.53338914  0.17421987  0.88580024    -0.08100
C1583       C  0.50482325  0.15753172  0.90625411     0.05400
C1584       C  0.47893785  0.13970118  0.88089124    -0.03200
Br1585     Br  0.43848573  0.11845515  0.90538867    -0.02900
H1586       H  0.46185290  0.12540455  0.81644156     0.09300
H1587       H  0.55346293  0.18765849  0.90528029     0.07300
Br1588     Br  0.57708455  0.19666625  0.81670857    -0.03300
C1589       C  0.52947433  0.19223975  0.33328004    -0.09900
C1590       C  0.52471117  0.16561609  0.31496213     0.06300
C1591       C  0.51910485  0.14023811  0.34333848    -0.03700
C1592       C  0.51628694  0.14125025  0.38865030    -0.08100
C1593       C  0.51897404  0.16721815  0.40683090     0.05400
C1594       C  0.52651991  0.19331137  0.37851946    -0.03200
Br1595     Br  0.53067702  0.23059655  0.39746355    -0.02900
H1596       H  0.53390746  0.21198889  0.31201933     0.09300
H1597       H  0.51157550  0.12134133  0.40971395     0.07300
Br1598     Br  0.51570883  0.10372025  0.32272019    -0.03300
C1599       C  0.58966286  0.31740037  0.14681087    -0.09900
C1600       C  0.57106729  0.30361080  0.11003225     0.06300
C1601       C  0.56164346  0.32092654  0.08247436    -0.03700
C1602       C  0.56996330  0.35050599  0.09256103    -0.08100
C1603       C  0.58787094  0.36409354  0.12987487     0.05400
C1604       C  0.59797735  0.34708064  0.15693669    -0.03200
Br1605     Br  0.62146100  0.36200847  0.20952830    -0.02900
H1606       H  0.59729106  0.30471290  0.16878733     0.09300
H1607       H  0.56229750  0.36303641  0.07037103     0.07300
Br1608     Br  0.53606061  0.30551135  0.03181283    -0.03300
C1609       C  0.43655014  0.00866898  0.16861616    -0.09900
C1610       C  0.42521177  0.02218607  0.13703667     0.06300
C1611       C  0.39416888  0.00665842  0.12560603    -0.03700
C1612       C  0.37479946  0.97888349  0.14778325    -0.08100
C1613       C  0.38585344  0.96652192  0.18178720     0.05400
C1614       C  0.41731381  0.98135014  0.19123335    -0.03200
Br1615     Br  0.43609780  0.96566100  0.23349754    -0.02900
H1616       H  0.46052446  0.02035043  0.17744964     0.09300
H1617       H  0.35082552  0.96719686  0.13908151     0.07300
Br1618     Br  0.37664539  0.02326206  0.08289407    -0.03300
C1619       C  0.34181837  0.10725415  0.95617976    -0.09900
C1620       C  0.32762763  0.07650149  0.94692659     0.06300
C1621       C  0.34189445  0.05955471  0.96154943    -0.03700
C1622       C  0.36879437  0.07295159  0.98671619    -0.08100
C1623       C  0.38169127  0.10311716  0.99911831     0.05400
C1624       C  0.36839792  0.12058141  0.98190358    -0.03200
Br1625     Br  0.38519471  0.16272237  0.99185852    -0.02900
H1626       H  0.33083681  0.12049388  0.94597457     0.09300
H1627       H  0.37889239  0.05919023  0.99831543     0.07300
Br1628     Br  0.32363133  0.01716801  0.95219514    -0.03300
C1629       C  0.90452480  0.23020699  0.53608227    -0.09900
C1630       C  0.93550595  0.24734882  0.52380493     0.06300
C1631       C  0.95182055  0.27786296  0.53553763    -0.03700
C1632       C  0.93704206  0.29062651  0.55712596    -0.08100
C1633       C  0.90598519  0.27386815  0.56857532     0.05400
C1634       C  0.88986334  0.24299262  0.55869726    -0.03200
Br1635     Br  0.84756979  0.21752529  0.57318206    -0.02900
H1636       H  0.89166456  0.20662756  0.52838052     0.09300
H1637       H  0.95000374  0.31428116  0.56437915     0.07300
Br1638     Br  0.99403399  0.30447041  0.52086877    -0.03300
C1639       C  0.77547242  0.44224736  0.60478779    -0.09900
C1640       C  0.77330128  0.42478923  0.64414003     0.06300
C1641       C  0.75148491  0.42063873  0.67581289    -0.03700
C1642       C  0.73238487  0.43328747  0.66729771    -0.08100
C1643       C  0.73422259  0.45008365  0.62749728     0.05400
C1644       C  0.75656757  0.45497389  0.59642656    -0.03200
Br1645     Br  0.76397666  0.48013016  0.54302178    -0.02900
H1646       H  0.79194874  0.44597989  0.57966632     0.09300
H1647       H  0.71558493  0.42947792  0.69191103     0.07300
Br1648     Br  0.74692239  0.39893832  0.73173969    -0.03300
C1649       C  0.69615054  0.24603656  0.64413262    -0.09900
C1650       C  0.70566210  0.27699282  0.64013263     0.06300
C1651       C  0.68492118  0.28699918  0.64985912    -0.03700
C1652       C  0.65446257  0.26584268  0.65982465    -0.08100
C1653       C  0.64444775  0.23460594  0.66176063     0.05400
C1654       C  0.66613232  0.22494024  0.65579212    -0.03200
Br1655     Br  0.65663611  0.18336222  0.66461589    -0.02900
H1656       H  0.71245958  0.23829259  0.63957453     0.09300
H1657       H  0.63831945  0.27384282  0.66392270     0.07300
Br1658     Br  0.69690054  0.32925390  0.64838184    -0.03300
C1659       C  0.99878990  0.44048031  0.68185852    -0.09900
C1660       C  0.98737257  0.41367300  0.65927557     0.06300
C1661       C  0.00328528  0.39730940  0.66234721    -0.03700
C1662       C  0.02931823  0.40719825  0.68899463    -0.08100
C1663       C  0.03951480  0.43290868  0.71386816     0.05400
C1664       C  0.02413308  0.44985201  0.70956634    -0.03200
Br1665     Br  0.03626526  0.48589105  0.74030176    -0.02900
H1666       H  0.98634872  0.45296502  0.68061202     0.09300
H1667       H  0.04142370  0.39439670  0.69091226     0.07300
Br1668     Br  0.98874957  0.35991352  0.63437355    -0.03300
C1669       C  0.86888881  0.37892429  0.90516515    -0.09900
C1670       C  0.84402181  0.35446233  0.92685076     0.06300
C1671       C  0.81817334  0.33531962  0.90179248    -0.03700
C1672       C  0.81774713  0.34113936  0.85623798    -0.08100
C1673       C  0.84291596  0.36525101  0.83446796     0.05400
C1674       C  0.86863527  0.38444937  0.85961794    -0.03200
Br1675     Br  0.90415989  0.41911750  0.83453944    -0.02900
H1676       H  0.88863981  0.39415042  0.92380397     0.09300
H1677       H  0.79827162  0.32563515  0.83741481     0.07300
Br1678     Br  0.78379288  0.29914943  0.92632684    -0.03300
C1679       C  0.82988192  0.33160268  0.40477526    -0.09900
C1680       C  0.85309177  0.35480097  0.42846352     0.06300
C1681       C  0.87506069  0.38115439  0.40483315    -0.03700
C1682       C  0.87324228  0.38377689  0.35870308    -0.08100
C1683       C  0.84984364  0.36056830  0.33531180     0.05400
C1684       C  0.82836765  0.33406624  0.35880469    -0.03200
Br1685     Br  0.79844673  0.29921315  0.32978476    -0.02900
H1686       H  0.81308988  0.31098162  0.42212830     0.09300
H1687       H  0.89018769  0.40411031  0.34095197     0.07300
Br1688     Br  0.90714829  0.41487119  0.43335345    -0.03300
C1689       C  0.90386885  0.27545422  0.00878741    -0.09900
C1690       C  0.90376114  0.27622642  0.05506260     0.06300
C1691       C  0.91869745  0.26296888  0.08032609    -0.03700
C1692       C  0.93408221  0.25038719  0.05936132    -0.08100
C1693       C  0.93433250  0.24980287  0.01311931     0.05400
C1694       C  0.91856058  0.26216138  0.98786591    -0.03200
Br1695     Br  0.91826578  0.26362151  0.92458989    -0.02900
H1696       H  0.89273886  0.28565531  0.98863097     0.09300
H1697       H  0.94593722  0.24092484  0.07943305     0.07300
Br1698     Br  0.92041699  0.26298914  0.14341773    -0.03300
C1699       C  0.77494803  0.44136983  0.10834786    -0.09900
C1700       C  0.77350556  0.42497177  0.14850445     0.06300
C1701       C  0.75113333  0.42042007  0.17947265    -0.03700
C1702       C  0.73120291  0.43215035  0.16982732    -0.08100
C1703       C  0.73267636  0.44840286  0.12938720     0.05400
C1704       C  0.75513764  0.45296630  0.09863059    -0.03200
Br1705     Br  0.76139011  0.47587611  0.04326832    -0.02900
H1706       H  0.79157689  0.44506235  0.08350114     0.09300
H1707       H  0.71427129  0.42831245  0.19425375     0.07300
Br1708     Br  0.74732428  0.39962729  0.23598473    -0.03300
C1709       C  0.66501843  0.23708157  0.18429338    -0.09900
C1710       C  0.64521144  0.24336556  0.15793256     0.06300
C1711       C  0.65729600  0.26830871  0.12686425    -0.03700
C1712       C  0.68877365  0.28599139  0.12158256    -0.08100
C1713       C  0.70871440  0.27973866  0.14764038     0.05400
C1714       C  0.69665264  0.25543901  0.18006196    -0.03200
Br1715     Br  0.72206675  0.24490425  0.21728501    -0.02900
H1716       H  0.65586560  0.21738907  0.20729296     0.09300
H1717       H  0.69772935  0.30484464  0.09710067     0.07300
Br1718     Br  0.63195537  0.27833924  0.08883502    -0.03300
C1719       C  0.99028442  0.42611144  0.17962101    -0.09900
C1720       C  0.98172737  0.40043399  0.15569940     0.06300
C1721       C  0.99957089  0.38607169  0.15879537    -0.03700
C1722       C  0.02562843  0.39757210  0.18539177    -0.08100
C1723       C  0.03403941  0.42305025  0.21006398     0.05400
C1724       C  0.01597058  0.43733793  0.20698928    -0.03200
Br1725     Br  0.02526094  0.47246677  0.23831302    -0.02900
H1726       H  0.97604748  0.43669207  0.17856103     0.09300
H1727       H  0.03951909  0.38659530  0.18668437     0.07300
Br1728     Br  0.98863134  0.35025576  0.12827715    -0.03300
loop_ 
_geom_bond_atom_site_label_1 
_geom_bond_atom_site_label_2 
_geom_bond_distance 
_geom_bond_site_symmetry_2 
_ccdc_geom_bond_type 
Zr1           O2   2.444       .  S
Zr1           O3   2.499       .  S
Zr1           O4   2.459       .  S
Zr1           O7   2.403       .  S
Zr1           O9   2.374       .  S
Zr1          O10   2.381       .  S
Zr1          O11   2.429       .  S
Zr1          O12   2.423       .  S
O2           H58   0.990       .  S
O2           H66   0.990       .  S
O3           C23   1.294       .  A
O4           C25   1.286       .  A
O5          Zr15   2.448       .  S
O5           C24   1.287       .  A
O6          Zr14   2.418       .  S
O6           C25   1.278       .  A
O7           C24   1.277       .  A
O8          Zr16   2.401       .  S
O8           C23   1.279       .  A
O9          Zr14   2.391       .  S
O9          Zr16   2.382       .  S
O10         Zr15   2.366       .  S
O10         Zr16   2.387       .  S
O10          H45   0.964       .  S
O11         Zr14   2.400       .  S
O11         Zr31   2.426       .  S
O11          H48   0.965       .  S
O12         Zr15   2.378       .  S
O12         Zr31   2.413       .  S
Zr13         O38   2.439       .  S
Zr13         O32   2.427       .  S
Zr13         O40   2.460   1_554  S
Zr13         O28   2.465       .  S
Zr13         O19   2.399       .  S
Zr13         O20   2.419       .  S
Zr13         O21   2.384       .  S
Zr13         O22   2.390       .  S
Zr14         O33   2.444       .  S
Zr14         O26   2.435       .  S
Zr14         O27   2.399       .  S
Zr14         O20   2.401       .  S
Zr14         O21   2.401       .  S
Zr15         O17   2.435       .  S
Zr15         O39   2.439       .  S
Zr15         O41   2.387   1_554  S
Zr15         O19   2.410       .  S
Zr15         O22   2.390       .  S
Zr16         O42   2.435       .  S
Zr16         O43   2.436       .  S
Zr16         O18   2.439       .  S
Zr16         O19   2.393       .  S
Zr16         O20   2.392       .  S
O17          H54   0.990       .  S
O18          H49   0.990       .  S
O18          H63   0.990       .  S
O20          H46   0.966       .  S
O21         Zr31   2.354       .  S
O22         Zr31   2.372       .  S
O22          H47   0.965       .  S
C23        C1700   1.500       .  S
C24        C1713   1.471       .  S
C25        C1683   1.479       .  S
O26          H62   0.990       .  S
O27          C29   1.270       .  A
O28          C29   1.284       .  A
C29        C1720   1.464       .  S
O30         Zr31   2.438       .  S
O30          H59   0.990       .  S
Zr31         O34   2.437       .  S
Zr31         O35   2.439       .  S
Zr31         O36   2.480       .  S
O32          C37   1.282       .  A
O33          H50   0.990       .  S
O33          H65   0.990       .  S
O34          H51   0.990       .  S
O35          H55   0.990       .  S
O35          H64   0.990       .  S
O36          C37   1.292       .  A
C37        C1690   1.498       .  S
O38          H57   0.990   1_554  S
O38          H61   0.990       .  S
O39          H53   0.990       .  S
O39          H60   0.990       .  S
O40          C44   1.291       .  A
O41          C44   1.275       .  A
O42          H52   0.990       .  S
O43          H56   0.990       .  S
C44        C1670   1.479       .  S
Zr67         O68   2.444       .  S
Zr67         O69   2.479       .  S
Zr67         O70   2.471       .  S
Zr67         O73   2.387       .  S
Zr67         O75   2.366       .  S
Zr67         O76   2.386       .  S
Zr67         O77   2.413       .  S
Zr67         O78   2.427       .  S
O68         H124   0.990       .  S
O68         H132   0.990       .  S
O69          C89   1.291       .  A
O70          C91   1.289       .  A
O71         Zr81   2.468       .  S
O71          C90   1.291       .  A
O72         Zr80   2.378       .  S
O72          C91   1.272       .  A
O73          C90   1.274       .  A
O74         Zr82   2.389       .  S
O74          C89   1.277       .  A
O75         Zr80   2.383       .  S
O75         Zr82   2.386       .  S
O76         Zr81   2.379       .  S
O76         Zr82   2.388       .  S
O76         H111   0.965       .  S
O77         Zr80   2.382       .  S
O77         Zr97   2.420       .  S
O77         H114   0.965       .  S
O78         Zr81   2.379       .  S
O78         Zr97   2.412       .  S
Zr79        O104   2.439       .  S
Zr79         O98   2.430       .  S
Zr79        O106   2.463       .  S
Zr79         O94   2.500       .  S
Zr79         O85   2.401       .  S
Zr79         O86   2.401       .  S
Zr79         O87   2.371       .  S
Zr79         O88   2.403       .  S
Zr80         O99   2.439       .  S
Zr80         O92   2.434       .  S
Zr80         O93   2.341       .  S
Zr80         O86   2.392       .  S
Zr80         O87   2.389       .  S
Zr81         O83   2.435       .  S
Zr81        O105   2.440       .  S
Zr81        O107   2.423       .  S
Zr81         O85   2.403       .  S
Zr81         O88   2.396       .  S
Zr82        O108   2.435       .  S
Zr82        O109   2.436       .  S
Zr82         O84   2.437       .  S
Zr82         O85   2.375       .  S
Zr82         O86   2.386       .  S
O83         H120   0.990       .  S
O84         H115   0.991       .  S
O84         H129   0.990       .  S
O86         H112   0.966       .  S
O87         Zr97   2.367       .  S
O88         Zr97   2.373       .  S
O88         H113   0.966       .  S
C89        C1640   1.492       .  S
C90        C1650   1.469       .  S
C91        C1673   1.479       .  S
O92         H128   0.990       .  S
O93          C95   1.269       .  A
O94          C95   1.295       .  A
C95        C1660   1.470       .  S
O96         Zr97   2.437       .  S
O96         H125   0.990       .  S
Zr97        O100   2.437       .  S
Zr97        O101   2.438       .  S
Zr97        O102   2.469       .  S
O98         C103   1.284       .  A
O99         H116   0.990       .  S
O99         H131   0.990       .  S
O100        H117   0.990       .  S
O101        H121   0.990       .  S
O101        H130   0.990       .  S
O102        C103   1.290       .  A
C103       C1633   1.500       .  S
O104        H123   0.990       .  S
O104        H127   0.990       .  S
O105        H119   0.990       .  S
O105        H126   0.990       .  S
O106        C110   1.291       .  A
O107        C110   1.284       .  A
O108        H118   0.990       .  S
O109        H122   0.990       .  S
C110       C1680   1.486       .  S
Zr133       O134   2.447       .  S
Zr133       O135   2.452       .  S
Zr133       O136   2.425       .  S
Zr133       O139   2.373       .  S
Zr133       O141   2.363       .  S
Zr133       O142   2.377       .  S
Zr133       O143   2.401       .  S
Zr133       O144   2.416       .  S
O134        H190   0.990       .  S
O134        H198   0.990       .  S
O135        C155   1.287       .  A
O136        C157   1.283       .  A
O137       Zr147   2.493       .  S
O137        C156   1.296       .  A
O138       Zr146   2.413       .  S
O138        C157   1.280       .  A
O139        C156   1.273       .  A
O140       Zr148   2.405       .  S
O140        C155   1.279       .  A
O141       Zr146   2.371       .  S
O141       Zr148   2.377       .  S
O142       Zr147   2.358       .  S
O142       Zr148   2.380       .  S
O142        H177   0.962       .  S
O143       Zr146   2.377       .  S
O143       Zr163   2.423       .  S
O143        H180   0.967       .  S
O144       Zr147   2.382       .  S
O144       Zr163   2.413       .  S
Zr145       O170   2.441       .  S
Zr145       O164   2.422       .  S
Zr145       O172   2.414   1_554  S
Zr145       O160   2.458       .  S
Zr145       O151   2.409       .  S
Zr145       O152   2.394       .  S
Zr145       O153   2.370       .  S
Zr145       O154   2.391       .  S
Zr146       O165   2.437       .  S
Zr146       O158   2.437       .  S
Zr146       O159   2.366       .  S
Zr146       O152   2.390       .  S
Zr146       O153   2.394       .  S
Zr147       O149   2.434   1_554  S
Zr147       O171   2.437       .  S
Zr147       O173   2.430   1_554  S
Zr147       O151   2.414       .  S
Zr147       O154   2.387       .  S
Zr148       O174   2.435       .  S
Zr148       O175   2.437       .  S
Zr148       O150   2.439       .  S
Zr148       O151   2.392       .  S
Zr148       O152   2.386       .  S
O149        H186   0.990       .  S
O150        H181   0.990       .  S
O150        H195   0.990       .  S
O152        H178   0.965       .  S
O153       Zr163   2.363       .  S
O154       Zr163   2.360       .  S
O154        H179   0.966       .  S
C155       C1710   1.461       .  S
C156       C1600   1.496       .  S
C157       C1590   1.477       .  S
O158        H194   0.990       .  S
O159        C161   1.274       .  A
O160        C161   1.289       .  A
C161       C1610   1.466       .  S
O162       Zr163   2.437       .  S
O162        H191   0.990       .  S
Zr163       O166   2.437       .  S
Zr163       O167   2.437       .  S
Zr163       O168   2.485       .  S
O164        C169   1.282       .  A
O165        H182   0.990       .  S
O165        H197   0.990       .  S
O166        H183   0.990       .  S
O167        H187   0.990       .  S
O167        H196   0.990       .  S
O168        C169   1.294       .  A
C169       C1623   1.500   1_554  S
O170        H189   0.990   1_554  S
O170        H193   0.990       .  S
O171        H185   0.990   1_554  S
O171        H192   0.990   1_554  S
O172        C176   1.283       .  A
O173        C176   1.286       .  A
O174        H184   0.990       .  S
O175        H188   0.990       .  S
C176       C1583   1.465       .  S
Zr199       O200   2.445       .  S
Zr199       O201   2.474       .  S
Zr199       O202   2.420       .  S
Zr199       O205   2.390       .  S
Zr199       O207   2.372       .  S
Zr199       O208   2.372       .  S
Zr199       O209   2.418       .  S
Zr199       O210   2.417       .  S
O200        H256   0.991       .  S
O200        H264   0.990       .  S
O201        C221   1.292       .  A
O202        C223   1.279       .  A
O203       Zr213   2.459       .  S
O203        C222   1.289       .  A
O204       Zr212   2.425       .  S
O204        C223   1.281       .  A
O205        C222   1.275       .  A
O206       Zr214   2.383       .  S
O206        C221   1.274       .  A
O207       Zr212   2.387       .  S
O207       Zr214   2.381       .  S
O208       Zr213   2.370       .  S
O208       Zr214   2.387       .  S
O208        H243   0.965       .  S
O209       Zr212   2.394       .  S
O209       Zr229   2.423       .  S
O209        H246   0.966       .  S
O210       Zr213   2.379       .  S
O210       Zr229   2.414       .  S
Zr211       O236   2.438       .  S
Zr211       O230   2.415       .  S
Zr211       O238   2.440       .  S
Zr211       O226   2.468       .  S
Zr211       O217   2.394       .  S
Zr211       O218   2.410       .  S
Zr211       O219   2.378       .  S
Zr211       O220   2.399       .  S
Zr212       O231   2.443       .  S
Zr212       O224   2.434       .  S
Zr212       O225   2.387       .  S
Zr212       O218   2.404       .  S
Zr212       O219   2.397       .  S
Zr213       O215   2.436       .  S
Zr213       O237   2.438       .  S
Zr213       O239   2.414       .  S
Zr213       O217   2.403       .  S
Zr213       O220   2.391       .  S
Zr214       O240   2.434       .  S
Zr214       O241   2.434       .  S
Zr214       O216   2.437       .  S
Zr214       O217   2.375       .  S
Zr214       O218   2.385       .  S
O215        H252   0.990       .  S
O216        H247   0.990       .  S
O216        H261   0.990       .  S
O218        H244   0.966       .  S
O219       Zr229   2.353       .  S
O220       Zr229   2.373       .  S
O220        H245   0.966       .  S
C221       C1653   1.481       .  S
C222       C1550   1.466       .  S
C223       C1580   1.475       .  S
O224        H260   0.990       .  S
O225        C227   1.270       .  A
O226        C227   1.285       .  A
C227       C1563   1.463       .  S
O228       Zr229   2.440       .  S
O228        H257   0.990       .  S
Zr229       O232   2.438       .  S
Zr229       O233   2.437       .  S
Zr229       O234   2.482       .  S
O230        C235   1.280       .  A
O231        H248   0.990       .  S
O231        H263   0.990       .  S
O232        H249   0.991       .  S
O233        H253   0.990       .  S
O233        H262   0.989       .  S
O234        C235   1.294       .  A
C235       C1573   1.498       .  S
O236        H255   0.990       .  S
O236        H259   0.990       .  S
O237        H251   0.990       .  S
O237        H258   0.990       .  S
O238        C242   1.288       .  A
O239        C242   1.280       .  A
O240        H250   0.990       .  S
O241        H254   0.990       .  S
C242       C1593   1.483       .  S
Zr265       O266   2.444       .  S
Zr265       O267   2.490       .  S
Zr265       O268   2.484       .  S
Zr265       O271   2.405       .  S
Zr265       O273   2.373       .  S
Zr265       O274   2.393       .  S
Zr265       O275   2.418       .  S
Zr265       O276   2.427       .  S
O266        H322   0.990       .  S
O266        H330   0.991       .  S
O267        C287   1.293       .  A
O268        C289   1.292       .  A
O269       Zr279   2.474       .  S
O269        C288   1.292       .  A
O270       Zr278   2.391       .  S
O270        C289   1.275       .  A
O271        C288   1.279       .  A
O272       Zr280   2.393       .  S
O272        C287   1.277       .  A
O273       Zr278   2.388       .  S
O273       Zr280   2.383       .  S
O274       Zr279   2.366       .  S
O274       Zr280   2.386       .  S
O274        H309   0.965       .  S
O275       Zr278   2.395       .  S
O275       Zr295   2.423       .  S
O275        H312   0.965       .  S
O276       Zr279   2.382       .  S
O276       Zr295   2.410       .  S
Zr277       O302   2.434   1_554  S
Zr277       O296   2.415       .  S
Zr277       O304   2.468   1_554  S
Zr277       O292   2.519       .  S
Zr277       O283   2.409       .  S
Zr277       O284   2.404       .  S
Zr277       O285   2.374       .  S
Zr277       O286   2.406       .  S
Zr278       O297   2.439       .  S
Zr278       O290   2.434       .  S
Zr278       O291   2.369       .  S
Zr278       O284   2.407       .  S
Zr278       O285   2.395       .  S
Zr279       O281   2.436       .  S
Zr279       O303   2.439       .  S
Zr279       O305   2.431   1_554  S
Zr279       O283   2.404       .  S
Zr279       O286   2.384       .  S
Zr280       O306   2.435       .  S
Zr280       O307   2.436       .  S
Zr280       O282   2.438       .  S
Zr280       O283   2.379       .  S
Zr280       O284   2.374       .  S
O281        H318   0.990   1_554  S
O282        H313   0.990       .  S
O282        H327   0.990       .  S
O284        H310   0.965       .  S
O285       Zr295   2.364       .  S
O286       Zr295   2.366       .  S
O286        H311   0.965       .  S
C287       C1603   1.497       .  S
C288       C1703   1.497       .  S
C289       C1520   1.491       .  S
O290        H326   0.990       .  S
O291        C293   1.262       .  A
O292        C293   1.296       .  A
C293       C1530   1.496       .  S
O294       Zr295   2.439       .  S
O294        H323   0.990       .  S
Zr295       O298   2.438       .  S
Zr295       O299   2.438       .  S
Zr295       O300   2.471       .  S
O296        C301   1.281       .  A
O297        H314   0.990       .  S
O297        H329   0.990       .  S
O298        H315   0.990       .  S
O299        H319   0.989       .  S
O299        H328   0.990       .  S
O300        C301   1.291       .  A
C301       C1540   1.486       .  S
O302        H321   0.990       .  S
O302        H325   0.989       .  S
O303        H317   0.990   1_554  S
O303        H324   0.990   1_554  S
O304        C308   1.293       .  A
O305        C308   1.286       .  A
O306        H316   0.990       .  S
O307        H320   0.990       .  S
C308       C1513   1.489       .  S
Zr331       O332   2.442       .  S
Zr331       O333   2.483       .  S
Zr331       O334   2.484       .  S
Zr331       O337   2.407       .  S
Zr331       O339   2.375       .  S
Zr331       O340   2.389       .  S
Zr331       O341   2.413       .  S
Zr331       O342   2.427       .  S
O332        H388   0.990       .  S
O332        H396   0.989       .  S
O333        C353   1.291       .  A
O334        C355   1.292       .  A
O335       Zr345   2.448       .  S
O335        C354   1.286       .  A
O336       Zr344   2.408       .  S
O336        C355   1.279       .  A
O337        C354   1.279       .  A
O338       Zr346   2.380       .  S
O338        C353   1.275       .  A
O339       Zr344   2.383       .  S
O339       Zr346   2.387       .  S
O340       Zr345   2.373       .  S
O340       Zr346   2.385       .  S
O340        H375   0.965       .  S
O341       Zr344   2.395       .  S
O341       Zr361   2.413       .  S
O341        H378   0.965       .  S
O342       Zr345   2.383       .  S
O342       Zr361   2.414       .  S
Zr343       O368   2.435       .  S
Zr343       O362   2.428       .  S
Zr343       O370   2.477       .  S
Zr343       O358   2.505       .  S
Zr343       O349   2.402       .  S
Zr343       O350   2.413       .  S
Zr343       O351   2.374       .  S
Zr343       O352   2.398       .  S
Zr344       O363   2.439       .  S
Zr344       O356   2.436       .  S
Zr344       O357   2.379       .  S
Zr344       O350   2.404       .  S
Zr344       O351   2.398       .  S
Zr345       O347   2.434       .  S
Zr345       O369   2.440       .  S
Zr345       O371   2.413       .  S
Zr345       O349   2.391       .  S
Zr345       O352   2.387       .  S
Zr346       O372   2.436       .  S
Zr346       O373   2.435       .  S
Zr346       O348   2.437       .  S
Zr346       O349   2.373       .  S
Zr346       O350   2.378       .  S
O347        H384   0.990       .  S
O348        H379   0.990       .  S
O348        H393   0.990       .  S
O350        H376   0.965       .  S
O351       Zr361   2.356       .  S
O352       Zr361   2.370       .  S
O352        H377   0.965       .  S
C353       C1553   1.483       .  S
C354       C1643   1.483       .  S
C355       C1510   1.491       .  S
O356        H392   0.990       .  S
O357        C359   1.265       .  A
O358        C359   1.294       .  A
C359       C1490   1.496       .  S
O360       Zr361   2.439       .  S
O360        H389   0.991       .  S
Zr361       O364   2.437       .  S
Zr361       O365   2.438       .  S
Zr361       O366   2.476       .  S
O362        C367   1.284       .  A
O363        H380   0.990       .  S
O363        H395   0.990       .  S
O364        H381   0.990       .  S
O365        H385   0.990       .  S
O365        H394   0.990       .  S
O366        C367   1.293       .  A
C367       C1500   1.493       .  S
O368        H387   0.990       .  S
O368        H391   0.990       .  S
O369        H383   0.990       .  S
O369        H390   0.990       .  S
O370        C374   1.297       .  A
O371        C374   1.282       .  A
O372        H382   0.990       .  S
O373        H386   0.990       .  S
C374       C1523   1.492       .  S
Zr397       O398   2.444       .  S
Zr397       O399   2.474       .  S
Zr397       O400   2.433       .  S
Zr397       O403   2.390       .  S
Zr397       O405   2.370       .  S
Zr397       O406   2.381       .  S
Zr397       O407   2.425       .  S
Zr397       O408   2.418       .  S
O398        H454   0.991       .  S
O398        H462   0.990       .  S
O399        C419   1.289       .  A
O400        C421   1.281       .  A
O401       Zr411   2.469       .  S
O401        C420   1.288       .  A
O402       Zr410   2.415       .  S
O402        C421   1.277       .  A
O403        C420   1.274       .  A
O404       Zr412   2.397       .  S
O404        C419   1.275       .  A
O405       Zr410   2.386       .  S
O405       Zr412   2.385       .  S
O406       Zr411   2.381       .  S
O406       Zr412   2.380       .  S
O406        H441   0.964       .  S
O407       Zr410   2.395       .  S
O407       Zr427   2.439       .  S
O407        H444   0.965       .  S
O408       Zr411   2.386       .  S
O408       Zr427   2.410       .  S
Zr409       O434   2.436       .  S
Zr409       O428   2.409       .  S
Zr409       O436   2.426       .  S
Zr409       O424   2.447       .  S
Zr409       O415   2.392       .  S
Zr409       O416   2.409       .  S
Zr409       O417   2.379       .  S
Zr409       O418   2.390       .  S
Zr410       O429   2.444       .  S
Zr410       O422   2.435       .  S
Zr410       O423   2.388       .  S
Zr410       O416   2.403       .  S
Zr410       O417   2.399       .  S
Zr411       O413   2.436       .  S
Zr411       O435   2.437       .  S
Zr411       O437   2.421       .  S
Zr411       O415   2.398       .  S
Zr411       O418   2.401       .  S
Zr412       O438   2.439       .  S
Zr412       O439   2.434       .  S
Zr412       O414   2.437       .  S
Zr412       O415   2.383       .  S
Zr412       O416   2.385       .  S
O413        H450   0.990       .  S
O414        H445   0.990       .  S
O414        H459   0.990       .  S
O416        H442   0.963       .  S
O417       Zr427   2.354       .  S
O418       Zr427   2.373       .  S
O418        H443   0.966       .  S
C419       C1480   1.469       .  S
C420       C1470   1.477       .  S
C421       C1450   1.467       .  S
O422        H458   0.990       .  S
O423        C425   1.268       .  A
O424        C425   1.281       .  A
C425       C1613   1.470       .  S
O426       Zr427   2.437       .  S
O426        H455   0.990       .  S
Zr427       O430   2.435       .  S
Zr427       O431   2.437       .  S
Zr427       O432   2.492       .  S
O428        C433   1.280       .  A
O429        H446   0.990       .  S
O429        H461   0.990       .  S
O430        H447   0.991       .  S
O431        H451   0.990       .  S
O431        H460   0.989       .  S
O432        C433   1.294       .  A
C433       C1460   1.502       .  S
O434        H453   0.990       .  S
O434        H457   0.990       .  S
O435        H449   0.990       .  S
O435        H456   0.990       .  S
O436        C440   1.284       .  A
O437        C440   1.284       .  A
O438        H448   0.990       .  S
O439        H452   0.990       .  S
C440       C1443   1.475       .  S
Zr463       O464   2.443       .  S
Zr463       O465   2.481       .  S
Zr463       O466   2.444       .  S
Zr463       O469   2.397       .  S
Zr463       O471   2.374       .  S
Zr463       O472   2.383       .  S
Zr463       O473   2.413       .  S
Zr463       O474   2.418       .  S
O464        H520   0.990       .  S
O464        H528   0.991       .  S
O465        C485   1.291       .  A
O466        C487   1.283       .  A
O467       Zr477   2.459       .  S
O467        C486   1.285       .  A
O468       Zr476   2.398       .  S
O468        C487   1.276       .  A
O469        C486   1.273       .  A
O470       Zr478   2.390       .  S
O470        C485   1.275       .  A
O471       Zr476   2.385       .  S
O471       Zr478   2.389       .  S
O472       Zr477   2.374       .  S
O472       Zr478   2.383       .  S
O472        H507   0.963       .  S
O473       Zr476   2.392       .  S
O473       Zr493   2.426       .  S
O473        H510   0.965       .  S
O474       Zr477   2.379       .  S
O474       Zr493   2.410       .  S
Zr475       O500   2.439       .  S
Zr475       O494   2.411       .  S
Zr475       O502   2.452       .  S
Zr475       O490   2.477       .  S
Zr475       O481   2.399       .  S
Zr475       O482   2.416       .  S
Zr475       O483   2.380       .  S
Zr475       O484   2.400       .  S
Zr476       O495   2.438       .  S
Zr476       O488   2.436       .  S
Zr476       O489   2.382       .  S
Zr476       O482   2.404       .  S
Zr476       O483   2.397       .  S
Zr477       O479   2.434       .  S
Zr477       O501   2.438       .  S
Zr477       O503   2.398       .  S
Zr477       O481   2.407       .  S
Zr477       O484   2.397       .  S
Zr478       O504   2.436       .  S
Zr478       O505   2.436       .  S
Zr478       O480   2.437       .  S
Zr478       O481   2.379       .  S
Zr478       O482   2.386       .  S
O479        H516   0.990       .  S
O480        H511   0.990       .  S
O480        H525   0.990       .  S
O482        H508   0.965       .  S
O483       Zr493   2.353       .  S
O484       Zr493   2.372       .  S
O484        H509   0.966       .  S
C485       C1430   1.471       .  S
C486       C1420   1.472       .  S
C487       C1440   1.472       .  S
O488        H524   0.990       .  S
O489        C491   1.266       .  A
O490        C491   1.284       .  A
C491       C1560   1.480       .  S
O492       Zr493   2.438       .  S
O492        H521   0.991       .  S
Zr493       O496   2.436       .  S
Zr493       O497   2.437       .  S
Zr493       O498   2.477       .  S
O494        C499   1.280       .  A
O495        H512   0.991       .  S
O495        H527   0.989       .  S
O496        H513   0.990       .  S
O497        H517   0.990       .  S
O497        H526   0.990       .  S
O498        C499   1.292       .  A
C499       C1413   1.493       .  S
O500        H519   0.990       .  S
O500        H523   0.991       .  S
O501        H515   0.990       .  S
O501        H522   0.990       .  S
O502        C506   1.290       .  A
O503        C506   1.279       .  A
O504        H514   0.990       .  S
O505        H518   0.990       .  S
C506       C1453   1.472       .  S
Zr529       O530   2.441       .  S
Zr529       O531   2.449       .  S
Zr529       O532   2.406       .  S
Zr529       O535   2.371       .  S
Zr529       O537   2.377       .  S
Zr529       O538   2.392       .  S
Zr529       O539   2.411       .  S
Zr529       O540   2.406       .  S
O530        H586   0.990       .  S
O530        H594   0.990       .  S
O531        C551   1.282       .  A
O532        C553   1.277       .  A
O533       Zr543   2.489       .  S
O533        C552   1.295       .  A
O534       Zr542   2.414       .  S
O534        C553   1.278       .  A
O535        C552   1.273       .  A
O536       Zr544   2.410       .  S
O536        C551   1.273       .  A
O537       Zr542   2.379       .  S
O537       Zr544   2.383       .  S
O538       Zr543   2.361       .  S
O538       Zr544   2.389       .  S
O538        H573   0.965       .  S
O539       Zr542   2.396       .  S
O539       Zr559   2.431       .  S
O539        H576   0.966       .  S
O540       Zr543   2.375       .  S
O540       Zr559   2.403       .  S
Zr541       O566   2.435       .  S
Zr541       O560   2.416       .  S
Zr541       O568   2.433       .  S
Zr541       O556   2.470       .  S
Zr541       O547   2.404       .  S
Zr541       O548   2.408       .  S
Zr541       O549   2.375       .  S
Zr541       O550   2.397       .  S
Zr542       O561   2.444       .  S
Zr542       O554   2.435       .  S
Zr542       O555   2.389       .  S
Zr542       O548   2.404       .  S
Zr542       O549   2.393       .  S
Zr543       O545   2.434       .  S
Zr543       O567   2.440       .  S
Zr543       O569   2.411       .  S
Zr543       O547   2.412       .  S
Zr543       O550   2.396       .  S
Zr544       O570   2.435       .  S
Zr544       O571   2.435       .  S
Zr544       O546   2.442       .  S
Zr544       O547   2.391       .  S
Zr544       O548   2.394       .  S
O545        H582   0.990       .  S
O546        H577   0.990       .  S
O546        H591   0.990       .  S
O548        H574   0.965       .  S
O549       Zr559   2.350       .  S
O550       Zr559   2.368       .  S
O550        H575   0.966       .  S
C551       C1473   1.479       .  S
C552       C1390   1.475       .  S
C553       C1383   1.454       .  S
O554        H590   0.990       .  S
O555        C557   1.268       .  A
O556        C557   1.283       .  A
C557       C1723   1.476       .  S
O558       Zr559   2.440       .  S
O558        H587   0.990       .  S
Zr559       O562   2.436       .  S
Zr559       O563   2.440       .  S
Zr559       O564   2.482       .  S
O560        C565   1.281       .  A
O561        H578   0.990       .  S
O561        H593   0.990       .  S
O562        H579   0.990       .  S
O563        H583   0.990       .  S
O563        H592   0.990       .  S
O564        C565   1.294       .  A
C565       C1403   1.497       .  S
O566        H585   0.990       .  S
O566        H589   0.990       .  S
O567        H581   0.990       .  S
O567        H588   0.990       .  S
O568        C572   1.286       .  A
O569        C572   1.283       .  A
O570        H580   0.990       .  S
O571        H584   0.990       .  S
C572       C1370   1.474       .  S
Zr595       O596   2.442       .  S
Zr595       O597   2.456       .  S
Zr595       O598   2.440       .  S
Zr595       O601   2.406       .  S
Zr595       O603   2.385       .  S
Zr595       O604   2.401       .  S
Zr595       O605   2.426       .  S
Zr595       O606   2.418       .  S
O596        H652   0.990       .  S
O596        H660   0.989       .  S
O597        C617   1.280       .  A
O598        C619   1.283       .  A
O599       Zr609   2.477       .  S
O599        C618   1.290       .  A
O600       Zr608   2.404       .  S
O600        C619   1.277       .  A
O601        C618   1.277       .  A
O602       Zr610   2.389       .  S
O602        C617   1.265       .  A
O603       Zr608   2.384       .  S
O603       Zr610   2.386       .  S
O604       Zr609   2.370       .  S
O604       Zr610   2.394       .  S
O604        H639   0.965       .  S
O605       Zr608   2.400       .  S
O605       Zr625   2.430       .  S
O605        H642   0.966       .  S
O606       Zr609   2.381       .  S
O606       Zr625   2.416       .  S
Zr607       O632   2.437       .  S
Zr607       O626   2.411       .  S
Zr607       O634   2.410       .  S
Zr607       O622   2.467       .  S
Zr607       O613   2.401       .  S
Zr607       O614   2.404       .  S
Zr607       O615   2.375       .  S
Zr607       O616   2.402       .  S
Zr608       O627   2.444       .  S
Zr608       O620   2.436       .  S
Zr608       O621   2.389       .  S
Zr608       O614   2.405       .  S
Zr608       O615   2.387       .  S
Zr609       O611   2.435       .  S
Zr609       O633   2.438       .  S
Zr609       O635   2.407       .  S
Zr609       O613   2.408       .  S
Zr609       O616   2.397       .  S
Zr610       O636   2.437       .  S
Zr610       O637   2.435       .  S
Zr610       O612   2.435       .  S
Zr610       O613   2.384       .  S
Zr610       O614   2.383       .  S
O611        H648   0.990       .  S
O612        H643   0.990       .  S
O612        H657   0.990       .  S
O614        H640   0.964       .  S
O615       Zr625   2.342       .  S
O616       Zr625   2.370       .  S
O616        H641   0.965       .  S
C617       C1423   1.479       .  S
C618       C1350   1.485       .  S
C619       C1373   1.472       .  S
O620        H656   0.990       .  S
O621        C623   1.266       .  A
O622        C623   1.282       .  A
C623       C1663   1.476       .  S
O624       Zr625   2.435       .  S
O624        H653   0.990       .  S
Zr625       O628   2.437       .  S
Zr625       O629   2.437       .  S
Zr625       O630   2.487       .  S
O626        C631   1.279       .  A
O627        H644   0.990       .  S
O627        H659   0.990       .  S
O628        H645   0.990       .  S
O629        H649   0.991       .  S
O629        H658   0.990       .  S
O630        C631   1.295       .  A
C631       C1363   1.502       .  S
O632        H651   0.990       .  S
O632        H655   0.990       .  S
O633        H647   0.990       .  S
O633        H654   0.990       .  S
O634        C638   1.283       .  A
O635        C638   1.281       .  A
O636        H646   0.991       .  S
O637        H650   0.990       .  S
C638       C1380   1.462       .  S
Zr661       O662   2.443       .  S
Zr661       O663   2.481       .  S
Zr661       O664   2.460       .  S
Zr661       O667   2.403       .  S
Zr661       O669   2.372       .  S
Zr661       O670   2.383       .  S
Zr661       O671   2.416       .  S
Zr661       O672   2.419       .  S
O662        H718   0.991       .  S
O662        H726   0.989       .  S
O663        C683   1.291       .  A
O664        C685   1.286       .  A
O665       Zr675   2.456       .  S
O665        C684   1.287       .  A
O666       Zr674   2.401       .  S
O666        C685   1.276       .  A
O667        C684   1.278       .  A
O668       Zr676   2.388       .  S
O668        C683   1.277       .  A
O669       Zr674   2.387       .  S
O669       Zr676   2.386       .  S
O670       Zr675   2.364       .  S
O670       Zr676   2.386       .  S
O670        H705   0.963       .  S
O671       Zr674   2.401       .  S
O671       Zr691   2.415       .  S
O671        H708   0.964       .  S
O672       Zr675   2.386       .  S
O672       Zr691   2.409       .  S
Zr673       O698   2.438       .  S
Zr673       O692   2.419       .  S
Zr673       O700   2.454       .  S
Zr673       O688   2.487       .  S
Zr673       O679   2.402       .  S
Zr673       O680   2.418       .  S
Zr673       O681   2.385       .  S
Zr673       O682   2.394       .  S
Zr674       O693   2.443       .  S
Zr674       O686   2.436       .  S
Zr674       O687   2.395       .  S
Zr674       O680   2.406       .  S
Zr674       O681   2.401       .  S
Zr675       O677   2.434       .  S
Zr675       O699   2.439       .  S
Zr675       O701   2.403       .  S
Zr675       O679   2.410       .  S
Zr675       O682   2.387       .  S
Zr676       O702   2.438       .  S
Zr676       O703   2.437       .  S
Zr676       O678   2.439       .  S
Zr676       O679   2.390       .  S
Zr676       O680   2.386       .  S
O677        H714   0.990       .  S
O678        H709   0.990       .  S
O678        H723   0.990       .  S
O680        H706   0.964       .  S
O681       Zr691   2.355       .  S
O682       Zr691   2.371       .  S
O682        H707   0.965       .  S
C683       C1393   1.492       .  S
C684       C1483   1.479       .  S
C685       C1330   1.474       .  S
O686        H722   0.990       .  S
O687        C689   1.265       .  A
O688        C689   1.285       .  A
C689       C1533   1.481       .  S
O690       Zr691   2.438       .  S
O690        H719   0.991       .  S
Zr691       O694   2.438       .  S
Zr691       O695   2.437       .  S
Zr691       O696   2.458       .  S
O692        C697   1.281       .  A
O693        H710   0.990       .  S
O693        H725   0.990       .  S
O694        H711   0.990       .  S
O695        H715   0.990       .  S
O695        H724   0.990       .  S
O696        C697   1.288       .  A
C697       C1340   1.480       .  S
O698        H717   0.990       .  S
O698        H721   0.990       .  S
O699        H713   0.990       .  S
O699        H720   0.990       .  S
O700        C704   1.291       .  A
O701        C704   1.279       .  A
O702        H712   0.990       .  S
O703        H716   0.990       .  S
C704       C1323   1.477       .  S
Zr727       O728   2.441       .  S
Zr727       O729   2.478       .  S
Zr727       O730   2.445       .  S
Zr727       O733   2.390       .  S
Zr727       O735   2.376       .  S
Zr727       O736   2.377       .  S
Zr727       O737   2.412       .  S
Zr727       O738   2.416       .  S
O728        H784   0.990       .  S
O728        H792   0.990       .  S
O729        C749   1.293       .  A
O730        C751   1.285       .  A
O731       Zr741   2.478       .  S
O731        C750   1.293       .  A
O732       Zr740   2.404       .  S
O732        C751   1.277       .  A
O733        C750   1.277       .  A
O734       Zr742   2.408       .  S
O734        C749   1.279       .  A
O735       Zr740   2.392       .  S
O735       Zr742   2.382       .  S
O736       Zr741   2.356       .  S
O736       Zr742   2.384       .  S
O736        H771   0.964       .  S
O737       Zr740   2.396       .  S
O737       Zr757   2.415       .  S
O737        H774   0.966       .  S
O738       Zr741   2.379       .  S
O738       Zr757   2.405       .  S
Zr739       O764   2.438       .  S
Zr739       O758   2.419       .  S
Zr739       O766   2.451       .  S
Zr739       O754   2.473       .  S
Zr739       O745   2.403       .  S
Zr739       O746   2.422       .  S
Zr739       O747   2.383       .  S
Zr739       O748   2.397       .  S
Zr740       O759   2.441       .  S
Zr740       O752   2.437       .  S
Zr740       O753   2.396       .  S
Zr740       O746   2.406       .  S
Zr740       O747   2.398       .  S
Zr741       O743   2.436       .  S
Zr741       O765   2.437       .  S
Zr741       O767   2.398       .  S
Zr741       O745   2.406       .  S
Zr741       O748   2.396       .  S
Zr742       O768   2.437       .  S
Zr742       O769   2.438       .  S
Zr742       O744   2.437       .  S
Zr742       O745   2.393       .  S
Zr742       O746   2.390       .  S
O743        H780   0.990       .  S
O744        H775   0.990       .  S
O744        H789   0.990       .  S
O746        H772   0.967       .  S
O747       Zr757   2.361       .  S
O748       Zr757   2.376       .  S
O748        H773   0.966       .  S
C749       C1353   1.478       .  S
C750       C1433   1.491       .  S
C751       C1320   1.468       .  S
O752        H788   0.990       .  S
O753        C755   1.265       .  A
O754        C755   1.284       .  A
C755       C1493   1.481       .  S
O756       Zr757   2.437       .  S
O756        H785   0.990       .  S
Zr757       O760   2.437       .  S
Zr757       O761   2.436       .  S
Zr757       O762   2.460       .  S
O758        C763   1.281       .  A
O759        H776   0.990       .  S
O759        H791   0.990       .  S
O760        H777   0.990       .  S
O761        H781   0.990       .  S
O761        H790   0.990       .  S
O762        C763   1.288       .  A
C763       C1310   1.487       .  S
O764        H783   0.990       .  S
O764        H787   0.991       .  S
O765        H779   0.990       .  S
O765        H786   0.990       .  S
O766        C770   1.288       .  A
O767        C770   1.279       .  A
O768        H778   0.991       .  S
O769        H782   0.991       .  S
C770       C1333   1.479       .  S
Zr793       O794   2.437       .  S
Zr793       O795   2.427   1_545  S
Zr793       O796   2.501       .  S
Zr793       O799   2.466       .  S
Zr793       O801   2.378       .  S
Zr793       O802   2.398   1_545  S
Zr793       O803   2.403       .  S
Zr793       O804   2.399       .  S
O794        H850   0.990       .  S
O794        H858   0.990       .  S
O795        C815   1.283       .  A
O796        C817   1.297       .  A
O797       Zr807   2.410       .  S
O797        C816   1.282   1_565  A
O798       Zr806   2.375       .  S
O798        C817   1.273       .  A
O799        C816   1.293       .  A
O800       Zr808   2.472       .  S
O800        C815   1.291       .  A
O801       Zr806   2.399       .  S
O801       Zr808   2.372   1_545  S
O802       Zr807   2.386       .  S
O802       Zr808   2.368       .  S
O802        H837   0.965       .  S
O803       Zr806   2.395       .  S
O803       Zr823   2.392       .  S
O803        H840   0.966       .  S
O804       Zr807   2.404   1_545  S
O804       Zr823   2.374       .  S
Zr805       O830   2.441   1_546  S
Zr805       O824   2.484       .  S
Zr805       O832   2.405   1_545  S
Zr805       O820   2.462   1_556  S
Zr805       O811   2.425   1_545  S
Zr805       O812   2.416   1_546  S
Zr805       O813   2.377       .  S
Zr805       O814   2.383       .  S
Zr806       O825   2.438   1_556  S
Zr806       O818   2.434   1_556  S
Zr806       O819   2.418   1_556  S
Zr806       O812   2.384   1_546  S
Zr806       O813   2.385       .  S
Zr807       O809   2.436       .  S
Zr807       O831   2.437       .  S
Zr807       O833   2.467       .  S
Zr807       O811   2.385       .  S
Zr807       O814   2.361   1_565  S
Zr808       O834   2.435       .  S
Zr808       O835   2.437   1_556  S
Zr808       O810   2.440   1_556  S
Zr808       O811   2.414       .  S
Zr808       O812   2.422   1_556  S
O809        H846   0.990       .  S
O810        H841   0.990       .  S
O810        H855   0.990   1_554  S
O812        H838   0.965       .  S
O813       Zr823   2.388       .  S
O814       Zr823   2.387       .  S
O814        H839   0.964       .  S
C815       C1410   1.497       .  S
C816       C1273   1.486       .  S
C817       C1620   1.480       .  S
O818        H854   0.990       .  S
O819        C821   1.281       .  A
O820        C821   1.287       .  A
C821       C1280   1.492       .  S
O822       Zr823   2.436       .  S
O822        H851   0.991       .  S
Zr823       O826   2.436       .  S
Zr823       O827   2.441       .  S
Zr823       O828   2.391       .  S
O824        C829   1.293       .  A
O825        H842   0.990       .  S
O825        H857   0.990   1_554  S
O826        H843   0.990       .  S
O827        H847   0.990       .  S
O827        H856   0.990       .  S
O828        C829   1.276       .  A
C829       C1300   1.474       .  S
O830        H849   0.990       .  S
O830        H853   0.991       .  S
O831        H845   0.990       .  S
O831        H852   0.990       .  S
O832        C836   1.276       .  A
O833        C836   1.289       .  A
O834        H844   0.990       .  S
O835        H848   0.990       .  S
C836       C1290   1.484       .  S
Zr859       O860   2.438       .  S
Zr859       O861   2.430   1_545  S
Zr859       O862   2.511       .  S
Zr859       O865   2.456       .  S
Zr859       O867   2.375       .  S
Zr859       O868   2.409   1_545  S
Zr859       O869   2.396       .  S
Zr859       O870   2.395       .  S
O860        H916   0.990       .  S
O860        H924   0.990       .  S
O861        C881   1.283       .  A
O862        C883   1.298       .  A
O863       Zr873   2.422       .  S
O863        C882   1.284   1_565  A
O864       Zr872   2.369       .  S
O864        C883   1.272       .  A
O865        C882   1.291       .  A
O866       Zr874   2.477       .  S
O866        C881   1.291       .  A
O867       Zr872   2.399       .  S
O867       Zr874   2.377   1_545  S
O868       Zr873   2.394       .  S
O868       Zr874   2.367       .  S
O868        H903   0.965       .  S
O869       Zr872   2.384       .  S
O869       Zr889   2.391       .  S
O869        H906   0.966       .  S
O870       Zr873   2.408   1_545  S
O870       Zr889   2.367       .  S
Zr871       O896   2.441   1_545  S
Zr871       O890   2.509       .  S
Zr871       O898   2.399   1_545  S
Zr871       O886   2.481       .  S
Zr871       O877   2.431   1_545  S
Zr871       O878   2.424   1_545  S
Zr871       O879   2.374       .  S
Zr871       O880   2.387       .  S
Zr872       O891   2.438       .  S
Zr872       O884   2.435       .  S
Zr872       O885   2.384       .  S
Zr872       O878   2.389   1_545  S
Zr872       O879   2.384       .  S
Zr873       O875   2.435       .  S
Zr873       O897   2.437       .  S
Zr873       O899   2.488       .  S
Zr873       O877   2.376       .  S
Zr873       O880   2.362   1_565  S
Zr874       O900   2.437       .  S
Zr874       O901   2.435       .  S
Zr874       O876   2.437       .  S
Zr874       O877   2.416       .  S
Zr874       O878   2.428       .  S
O875        H912   0.990       .  S
O876        H907   0.991       .  S
O876        H921   0.990       .  S
O878        H904   0.965       .  S
O879       Zr889   2.385       .  S
O880       Zr889   2.393       .  S
O880        H905   0.963       .  S
C881       C1463   1.502       .  S
C882       C1283   1.484       .  S
C883       C1570   1.481       .  S
O884        H920   0.990       .  S
O885        C887   1.275       .  A
O886        C887   1.290       .  A
C887       C1270   1.488       .  S
O888       Zr889   2.436       .  S
O888        H917   0.990       .  S
Zr889       O892   2.438       .  S
Zr889       O893   2.434       .  S
Zr889       O894   2.391       .  S
O890        C895   1.298       .  A
O891        H908   0.990       .  S
O891        H923   0.990       .  S
O892        H909   0.990       .  S
O893        H913   0.990       .  S
O893        H922   0.990       .  S
O894        C895   1.276       .  A
C895       C1260   1.486       .  S
O896        H915   0.990       .  S
O896        H919   0.989       .  S
O897        H911   0.990       .  S
O897        H918   0.990       .  S
O898        C902   1.275       .  A
O899        C902   1.292       .  A
O900        H910   0.990       .  S
O901        H914   0.990       .  S
C902       C1250   1.486       .  S
Zr925       O926   2.438   1_556  S
Zr925       O927   2.437   1_456  S
Zr925       O928   2.508       .  S
Zr925       O931   2.459   1_556  S
Zr925       O933   2.380   1_455  S
Zr925       O934   2.407   1_455  S
Zr925       O935   2.401       .  S
Zr925       O936   2.400   1_556  S
O926        H982   0.990       .  S
O926        H990   0.991       .  S
O927        C947   1.285   1_554  A
O928        C949   1.298       .  A
O929       Zr939   2.421       .  S
O929        C948   1.284   1_655  A
O930       Zr938   2.375       .  S
O930        C949   1.273       .  A
O931        C948   1.291       .  A
O932       Zr940   2.462       .  S
O932        C947   1.289       .  A
O933       Zr938   2.400   1_655  S
O933       Zr940   2.372       .  S
O934       Zr939   2.399   1_556  S
O934       Zr940   2.365       .  S
O934        H969   0.964   1_556  S
O935       Zr938   2.389       .  S
O935       Zr955   2.387       .  S
O935        H972   0.966       .  S
O936       Zr939   2.403   1_455  S
O936       Zr955   2.370   1_554  S
Zr937       O962   2.443       .  S
Zr937       O956   2.497   1_655  S
Zr937       O964   2.411       .  S
Zr937       O952   2.487   1_655  S
Zr937       O943   2.429       .  S
Zr937       O944   2.416       .  S
Zr937       O945   2.376   1_655  S
Zr937       O946   2.384   1_655  S
Zr938       O957   2.434       .  S
Zr938       O950   2.432       .  S
Zr938       O951   2.391       .  S
Zr938       O944   2.395   1_455  S
Zr938       O945   2.381       .  S
Zr939       O941   2.436       .  S
Zr939       O963   2.439       .  S
Zr939       O965   2.482   1_554  S
Zr939       O943   2.387   1_554  S
Zr939       O946   2.367   1_654  S
Zr940       O966   2.435       .  S
Zr940       O967   2.436       .  S
Zr940       O942   2.437       .  S
Zr940       O943   2.418       .  S
Zr940       O944   2.406       .  S
O941        H978   0.990       .  S
O942        H973   0.990       .  S
O942        H987   0.990       .  S
O944        H970   0.965       .  S
O945       Zr955   2.387       .  S
O946       Zr955   2.394       .  S
O946        H971   0.965       .  S
C947       C1693   1.495   1_556  S
C948       C1230   1.477       .  S
C949       C1360   1.484       .  S
O950        H986   0.990       .  S
O951        C953   1.275       .  A
O952        C953   1.292       .  A
C953       C1220   1.482       .  S
O954       Zr955   2.435   1_554  S
O954        H983   0.991       .  S
Zr955       O958   2.436       .  S
Zr955       O959   2.444   1_556  S
Zr955       O960   2.376       .  S
O956        C961   1.295       .  A
O957        H974   0.990       .  S
O957        H989   0.989       .  S
O958        H975   0.990       .  S
O959        H979   0.989       .  S
O959        H988   0.990       .  S
O960        C961   1.274       .  A
C961       C1303   1.480       .  S
O962        H981   0.989       .  S
O962        H985   0.991       .  S
O963        H977   0.990       .  S
O963        H984   0.990       .  S
O964        C968   1.281       .  A
O965        C968   1.292       .  A
O966        H976   0.990       .  S
O967        H980   0.990       .  S
C968       C1243   1.512       .  S
Zr991       O992   2.437       .  S
Zr991       O993   2.427   1_455  S
Zr991       O994   2.517       .  S
Zr991       O997   2.466       .  S
Zr991       O999   2.372   1_455  S
Zr991      O1000   2.404   1_455  S
Zr991      O1001   2.400       .  S
Zr991      O1002   2.401       .  S
O992       H1048   0.990       .  S
O992       H1056   0.990       .  S
O993       C1013   1.282       .  A
O994       C1015   1.300       .  A
O995      Zr1005   2.414       .  S
O995       C1014   1.282   1_655  A
O996      Zr1004   2.363       .  S
O996       C1015   1.272       .  A
O997       C1014   1.293       .  A
O998      Zr1006   2.480       .  S
O998       C1013   1.292       .  A
O999      Zr1004   2.395   1_655  S
O999      Zr1006   2.370       .  S
O1000     Zr1005   2.393       .  S
O1000     Zr1006   2.367       .  S
O1000      H1035   0.965       .  S
O1001     Zr1004   2.396       .  S
O1001     Zr1021   2.390       .  S
O1001      H1038   0.966       .  S
O1002     Zr1005   2.415   1_455  S
O1002     Zr1021   2.381       .  S
Zr1003     O1028   2.442       .  S
Zr1003     O1022   2.499   1_655  S
Zr1003     O1030   2.400       .  S
Zr1003     O1018   2.458   1_655  S
Zr1003     O1009   2.426       .  S
Zr1003     O1010   2.411       .  S
Zr1003     O1011   2.367   1_655  S
Zr1003     O1012   2.378   1_655  S
Zr1004     O1023   2.436       .  S
Zr1004     O1016   2.436       .  S
Zr1004     O1017   2.399       .  S
Zr1004     O1010   2.382   1_455  S
Zr1004     O1011   2.382       .  S
Zr1005     O1007   2.433       .  S
Zr1005     O1029   2.438       .  S
Zr1005     O1031   2.477       .  S
Zr1005     O1009   2.384       .  S
Zr1005     O1012   2.363   1_655  S
Zr1006     O1032   2.437       .  S
Zr1006     O1033   2.436       .  S
Zr1006     O1008   2.440       .  S
Zr1006     O1009   2.418       .  S
Zr1006     O1010   2.419       .  S
O1007      H1044   0.990       .  S
O1008      H1039   0.990       .  S
O1008      H1053   0.990       .  S
O1010      H1036   0.965       .  S
O1011     Zr1021   2.380       .  S
O1012     Zr1021   2.392       .  S
O1012      H1037   0.964       .  S
C1013      C1630   1.501       .  S
C1014      C1223   1.478       .  S
C1015      C1400   1.480       .  S
O1016      H1052   0.990   1_455  S
O1017      C1019   1.276       .  A
O1018      C1019   1.288       .  A
C1019      C1233   1.473       .  S
O1020     Zr1021   2.438       .  S
O1020      H1049   0.990       .  S
Zr1021     O1024   2.436       .  S
Zr1021     O1025   2.435       .  S
Zr1021     O1026   2.392       .  S
O1022      C1027   1.296       .  A
O1023      H1040   0.990       .  S
O1023      H1055   0.990       .  S
O1024      H1041   0.990       .  S
O1025      H1045   0.990       .  S
O1025      H1054   0.990       .  S
O1026      C1027   1.277       .  A
C1027      C1263   1.479       .  S
O1028      H1047   0.988       .  S
O1028      H1051   0.990       .  S
O1029      H1043   0.990       .  S
O1029      H1050   0.990       .  S
O1030      C1034   1.276       .  A
O1031      C1034   1.292       .  A
O1032      H1042   0.990       .  S
O1033      H1046   0.990       .  S
C1034      C1210   1.491       .  S
Zr1057     O1058   2.443   1_556  S
Zr1057     O1059   2.495       .  S
Zr1057     O1060   2.472   1_556  S
Zr1057     O1063   2.423       .  S
Zr1057     O1065   2.381       .  S
Zr1057     O1066   2.382       .  S
Zr1057     O1067   2.422   1_556  S
Zr1057     O1068   2.423       .  S
O1058      H1114   0.990       .  S
O1058      H1122   0.991       .  S
O1059      C1079   1.294       .  A
O1060      C1081   1.289       .  A
O1061     Zr1071   2.467       .  S
O1061      C1080   1.290       .  A
O1062     Zr1070   2.404       .  S
O1062      C1081   1.279       .  A
O1063      C1080   1.282       .  A
O1064     Zr1072   2.382       .  S
O1064      C1079   1.273       .  A
O1065     Zr1070   2.393   1_556  S
O1065     Zr1072   2.388       .  S
O1066     Zr1071   2.374       .  S
O1066     Zr1072   2.392       .  S
O1066      H1101   0.965       .  S
O1067     Zr1070   2.389       .  S
O1067     Zr1087   2.414   1_554  S
O1067      H1104   0.965       .  S
O1068     Zr1071   2.378       .  S
O1068     Zr1087   2.414       .  S
Zr1069     O1094   2.440       .  S
Zr1069     O1088   2.425       .  S
Zr1069     O1096   2.456       .  S
Zr1069     O1084   2.481       .  S
Zr1069     O1075   2.396       .  S
Zr1069     O1076   2.404       .  S
Zr1069     O1077   2.377       .  S
Zr1069     O1078   2.395       .  S
Zr1070     O1089   2.441       .  S
Zr1070     O1082   2.434       .  S
Zr1070     O1083   2.382   1_554  S
Zr1070     O1076   2.399   1_554  S
Zr1070     O1077   2.396   1_554  S
Zr1071     O1073   2.437       .  S
Zr1071     O1095   2.439       .  S
Zr1071     O1097   2.418       .  S
Zr1071     O1075   2.404       .  S
Zr1071     O1078   2.395       .  S
Zr1072     O1098   2.434       .  S
Zr1072     O1099   2.436       .  S
Zr1072     O1074   2.438       .  S
Zr1072     O1075   2.380       .  S
Zr1072     O1076   2.383       .  S
O1073      H1110   0.989       .  S
O1074      H1105   0.990       .  S
O1074      H1119   0.990       .  S
O1076      H1102   0.966       .  S
O1077     Zr1087   2.369       .  S
O1078     Zr1087   2.369       .  S
O1078      H1103   0.965       .  S
C1079      C1293   1.474       .  S
C1080      C1240   1.508       .  S
C1081      C1200   1.487       .  S
O1082      H1118   0.990       .  S
O1083      C1085   1.275       .  A
O1084      C1085   1.292       .  A
C1085      C1543   1.470       .  S
O1086     Zr1087   2.438   1_554  S
O1086      H1115   0.990       .  S
Zr1087     O1090   2.439   1_556  S
Zr1087     O1091   2.437       .  S
Zr1087     O1092   2.469       .  S
O1088      C1093   1.283       .  A
O1089      H1106   0.990       .  S
O1089      H1121   0.990       .  S
O1090      H1107   0.990   1_554  S
O1091      H1111   0.990       .  S
O1091      H1120   0.990       .  S
O1092      C1093   1.290       .  A
C1093      C1313   1.500       .  S
O1094      H1113   0.990       .  S
O1094      H1117   0.990       .  S
O1095      H1109   0.990       .  S
O1095      H1116   0.990       .  S
O1096      C1100   1.291       .  A
O1097      C1100   1.282       .  A
O1098      H1108   0.990       .  S
O1099      H1112   0.990       .  S
C1100      C1190   1.487       .  S
Zr1123     O1124   2.443       .  S
Zr1123     O1125   2.494       .  S
Zr1123     O1126   2.473       .  S
Zr1123     O1129   2.423       .  S
Zr1123     O1131   2.378       .  S
Zr1123     O1132   2.385       .  S
Zr1123     O1133   2.419       .  S
Zr1123     O1134   2.416       .  S
O1124      H1180   0.990       .  S
O1124      H1188   0.991       .  S
O1125      C1145   1.294       .  A
O1126      C1147   1.291       .  A
O1127     Zr1137   2.462       .  S
O1127      C1146   1.290       .  A
O1128     Zr1136   2.406       .  S
O1128      C1147   1.277       .  A
O1129      C1146   1.280       .  A
O1130     Zr1138   2.389       .  S
O1130      C1145   1.276       .  A
O1131     Zr1136   2.389       .  S
O1131     Zr1138   2.384       .  S
O1132     Zr1137   2.377       .  S
O1132     Zr1138   2.391       .  S
O1132      H1167   0.965       .  S
O1133     Zr1136   2.394       .  S
O1133     Zr1153   2.416       .  S
O1133      H1170   0.966       .  S
O1134     Zr1137   2.381       .  S
O1134     Zr1153   2.407       .  S
Zr1135     O1160   2.439       .  S
Zr1135     O1154   2.423       .  S
Zr1135     O1162   2.476       .  S
Zr1135     O1150   2.498       .  S
Zr1135     O1141   2.398       .  S
Zr1135     O1142   2.405       .  S
Zr1135     O1143   2.376       .  S
Zr1135     O1144   2.402       .  S
Zr1136     O1155   2.439       .  S
Zr1136     O1148   2.435       .  S
Zr1136     O1149   2.388       .  S
Zr1136     O1142   2.394       .  S
Zr1136     O1143   2.396       .  S
Zr1137     O1139   2.437       .  S
Zr1137     O1161   2.440       .  S
Zr1137     O1163   2.421       .  S
Zr1137     O1141   2.403       .  S
Zr1137     O1144   2.391       .  S
Zr1138     O1164   2.435       .  S
Zr1138     O1165   2.435       .  S
Zr1138     O1140   2.436       .  S
Zr1138     O1141   2.372       .  S
Zr1138     O1142   2.390       .  S
O1139      H1176   0.990       .  S
O1140      H1171   0.990       .  S
O1140      H1185   0.990       .  S
O1142      H1168   0.966       .  S
O1143     Zr1153   2.367       .  S
O1144     Zr1153   2.376       .  S
O1144      H1169   0.966       .  S
C1145      C1253   1.480       .  S
C1146      C1213   1.485       .  S
C1147      C1193   1.488       .  S
O1148      H1184   0.989       .  S
O1149      C1151   1.276       .  A
O1150      C1151   1.297       .  A
C1151      C1503   1.484       .  S
O1152     Zr1153   2.438       .  S
O1152      H1181   0.990       .  S
Zr1153     O1156   2.438       .  S
Zr1153     O1157   2.437       .  S
Zr1153     O1158   2.462       .  S
O1154      C1159   1.283       .  A
O1155      H1172   0.990       .  S
O1155      H1187   0.990       .  S
O1156      H1173   0.990       .  S
O1157      H1177   0.990       .  S
O1157      H1186   0.990       .  S
O1158      C1159   1.289       .  A
C1159      C1343   1.488       .  S
O1160      H1179   0.990       .  S
O1160      H1183   0.990       .  S
O1161      H1175   0.990       .  S
O1161      H1182   0.990       .  S
O1162      C1166   1.293       .  A
O1163      C1166   1.284       .  A
O1164      H1174   0.990       .  S
O1165      H1178   0.990       .  S
C1166      C1203   1.487       .  S
C1189      C1190   1.404       .  A
C1189      C1194   1.402       .  A
C1189      H1196   1.084       .  S
C1190      C1191   1.416       .  A
C1191      C1192   1.399       .  A
C1191     Br1198   1.921       .  S
C1192      C1193   1.403       .  A
C1192      H1197   1.083       .  S
C1193      C1194   1.417       .  A
C1194     Br1195   1.921       .  S
C1199      C1200   1.410       .  A
C1199      C1204   1.400       .  A
C1199      H1206   1.083       .  S
C1200      C1201   1.408       .  A
C1201      C1202   1.403       .  A
C1201     Br1208   1.919       .  S
C1202      C1203   1.410       .  A
C1202      H1207   1.084       .  S
C1203      C1204   1.408       .  A
C1204     Br1205   1.919       .  S
C1209      C1210   1.405       .  A
C1209      C1214   1.408   1_545  A
C1209      H1216   1.083       .  S
C1210      C1211   1.419       .  A
C1211      C1212   1.397   1_545  A
C1211     Br1218   1.920       .  S
C1212      C1213   1.397       .  A
C1212      H1217   1.084       .  S
C1213      C1214   1.416       .  A
C1214     Br1215   1.918       .  S
C1219      C1220   1.401       .  A
C1219      C1224   1.403       .  A
C1219      H1226   1.083       .  S
C1220      C1221   1.418   1_455  A
C1221      C1222   1.397       .  A
C1221     Br1228   1.920       .  S
C1222      C1223   1.397   1_655  A
C1222      H1227   1.084       .  S
C1223      C1224   1.415       .  A
C1224     Br1225   1.917       .  S
C1229      C1230   1.403   1_655  A
C1229      C1234   1.395       .  A
C1229      H1236   1.084       .  S
C1230      C1231   1.412       .  A
C1231      C1232   1.404       .  A
C1231     Br1238   1.919       .  S
C1232      C1233   1.406       .  A
C1232      H1237   1.084       .  S
C1233      C1234   1.407   1_455  A
C1234     Br1235   1.919       .  S
C1239      C1240   1.415       .  A
C1239      C1244   1.410   1_565  A
C1239      H1246   1.083   1_556  S
C1240      C1241   1.414       .  A
C1241      C1242   1.402   1_565  A
C1241     Br1248   1.923       .  S
C1242      C1243   1.414       .  A
C1242      H1247   1.082       .  S
C1243      C1244   1.416       .  A
C1244     Br1245   1.920   1_556  S
C1249      C1250   1.404       .  A
C1249      C1254   1.401   1_455  A
C1249      H1256   1.084       .  S
C1250      C1251   1.412       .  A
C1251      C1252   1.408   1_455  A
C1251     Br1258   1.917       .  S
C1252      C1253   1.406       .  A
C1252      H1257   1.084       .  S
C1253      C1254   1.409       .  A
C1254     Br1255   1.919       .  S
C1259      C1260   1.397       .  A
C1259      C1264   1.402       .  A
C1259      H1266   1.083       .  S
C1260      C1261   1.423       .  A
C1261      C1262   1.400       .  A
C1261     Br1268   1.919       .  S
C1262      C1263   1.394       .  A
C1262      H1267   1.084       .  S
C1263      C1264   1.418       .  A
C1264     Br1265   1.918       .  S
C1269      C1270   1.411       .  A
C1269      C1274   1.396       .  A
C1269      H1276   1.083       .  S
C1270      C1271   1.409       .  A
C1271      C1272   1.403       .  A
C1271     Br1278   1.918       .  S
C1272      C1273   1.412       .  A
C1272      H1277   1.083       .  S
C1273      C1274   1.407       .  A
C1274     Br1275   1.922       .  S
C1279      C1280   1.409       .  A
C1279      C1284   1.398       .  A
C1279      H1286   1.083       .  S
C1280      C1281   1.413       .  A
C1281      C1282   1.403       .  A
C1281     Br1288   1.919       .  S
C1282      C1283   1.409       .  A
C1282      H1287   1.084       .  S
C1283      C1284   1.408       .  A
C1284     Br1285   1.923       .  S
C1289      C1290   1.408       .  A
C1289      C1294   1.400       .  A
C1289      H1296   1.084       .  S
C1290      C1291   1.412       .  A
C1291      C1292   1.405   1_455  A
C1291     Br1298   1.920       .  S
C1292      C1293   1.406       .  A
C1292      H1297   1.084       .  S
C1293      C1294   1.406   1_655  A
C1294     Br1295   1.917   1_456  S
C1299      C1300   1.412       .  A
C1299      C1304   1.401       .  A
C1299      H1306   1.084       .  S
C1300      C1301   1.400       .  A
C1301      C1302   1.398       .  A
C1301     Br1308   1.919   1_556  S
C1302      C1303   1.414       .  A
C1302      H1307   1.084   1_556  S
C1303      C1304   1.404       .  A
C1304     Br1305   1.918       .  S
C1309      C1310   1.406       .  A
C1309      C1314   1.411       .  A
C1309      H1316   1.083       .  S
C1310      C1311   1.410       .  A
C1311      C1312   1.398       .  A
C1311     Br1318   1.923       .  S
C1312      C1313   1.408       .  A
C1312      H1317   1.083       .  S
C1313      C1314   1.418       .  A
C1314     Br1315   1.918       .  S
C1319      C1320   1.401       .  A
C1319      C1324   1.400       .  A
C1319      H1326   1.084       .  S
C1320      C1321   1.408       .  A
C1321      C1322   1.394       .  A
C1321     Br1328   1.919       .  S
C1322      C1323   1.402       .  A
C1322      H1327   1.083       .  S
C1323      C1324   1.416       .  A
C1324     Br1325   1.922       .  S
C1329      C1330   1.406       .  A
C1329      C1334   1.398   1_554  A
C1329      H1336   1.084       .  S
C1330      C1331   1.407   1_554  A
C1331      C1332   1.394       .  A
C1331     Br1338   1.919   1_556  S
C1332      C1333   1.408       .  A
C1332      H1337   1.084       .  S
C1333      C1334   1.410       .  A
C1334     Br1335   1.919       .  S
C1339      C1340   1.407       .  A
C1339      C1344   1.404       .  A
C1339      H1346   1.084       .  S
C1340      C1341   1.406       .  A
C1341      C1342   1.401       .  A
C1341     Br1348   1.919       .  S
C1342      C1343   1.409       .  A
C1342      H1347   1.083       .  S
C1343      C1344   1.411       .  A
C1344     Br1345   1.919       .  S
C1349      C1350   1.407       .  A
C1349      C1354   1.401       .  A
C1349      H1356   1.084       .  S
C1350      C1351   1.411       .  A
C1351      C1352   1.405       .  A
C1351     Br1358   1.916       .  S
C1352      C1353   1.406       .  A
C1352      H1357   1.084       .  S
C1353      C1354   1.407       .  A
C1354     Br1355   1.917       .  S
C1359      C1360   1.401       .  A
C1359      C1364   1.408       .  A
C1359      H1366   1.084       .  S
C1360      C1361   1.413       .  A
C1361      C1362   1.404       .  A
C1361     Br1368   1.919       .  S
C1362      C1363   1.405       .  A
C1362      H1367   1.083       .  S
C1363      C1364   1.424       .  A
C1364     Br1365   1.922       .  S
C1369      C1370   1.405       .  A
C1369      C1374   1.393       .  A
C1369      H1376   1.084       .  S
C1370      C1371   1.410       .  A
C1371      C1372   1.397       .  A
C1371     Br1378   1.920       .  S
C1372      C1373   1.406       .  A
C1372      H1377   1.084       .  S
C1373      C1374   1.407       .  A
C1374     Br1375   1.918       .  S
C1379      C1380   1.404       .  A
C1379      C1384   1.391   1_556  A
C1379      H1386   1.084       .  S
C1380      C1381   1.411       .  A
C1381      C1382   1.390   1_556  A
C1381     Br1388   1.922       .  S
C1382      C1383   1.399       .  A
C1382      H1387   1.083       .  S
C1383      C1384   1.405       .  A
C1384     Br1385   1.919       .  S
C1389      C1390   1.406       .  A
C1389      C1394   1.402       .  A
C1389      H1396   1.084       .  S
C1390      C1391   1.402       .  A
C1391      C1392   1.398       .  A
C1391     Br1398   1.918       .  S
C1392      C1393   1.415       .  A
C1392      H1397   1.083       .  S
C1393      C1394   1.416       .  A
C1394     Br1395   1.922       .  S
C1399      C1400   1.407       .  A
C1399      C1404   1.409       .  A
C1399      H1406   1.084       .  S
C1400      C1401   1.409       .  A
C1401      C1402   1.404       .  A
C1401     Br1408   1.920       .  S
C1402      C1403   1.409       .  A
C1402      H1407   1.084       .  S
C1403      C1404   1.413       .  A
C1404     Br1405   1.917       .  S
C1409      C1410   1.411       .  A
C1409      C1414   1.411       .  A
C1409      H1416   1.083       .  S
C1410      C1411   1.416       .  A
C1411      C1412   1.399       .  A
C1411     Br1418   1.923       .  S
C1412      C1413   1.405       .  A
C1412      H1417   1.084       .  S
C1413      C1414   1.412       .  A
C1414     Br1415   1.917       .  S
C1419      C1420   1.403       .  A
C1419      C1424   1.397       .  A
C1419      H1426   1.084       .  S
C1420      C1421   1.408       .  A
C1421      C1422   1.400       .  A
C1421     Br1428   1.920       .  S
C1422      C1423   1.407       .  A
C1422      H1427   1.082       .  S
C1423      C1424   1.412       .  A
C1424     Br1425   1.921       .  S
C1429      C1430   1.405       .  A
C1429      C1434   1.401       .  A
C1429      H1436   1.084       .  S
C1430      C1431   1.401       .  A
C1431      C1432   1.401       .  A
C1431     Br1438   1.917       .  S
C1432      C1433   1.415       .  A
C1432      H1437   1.083       .  S
C1433      C1434   1.411       .  A
C1434     Br1435   1.917       .  S
C1439      C1440   1.406       .  A
C1439      C1444   1.395       .  A
C1439      H1446   1.084       .  S
C1440      C1441   1.406       .  A
C1441      C1442   1.396       .  A
C1441     Br1448   1.920       .  S
C1442      C1443   1.407       .  A
C1442      H1447   1.084       .  S
C1443      C1444   1.411       .  A
C1444     Br1445   1.923       .  S
C1449      C1450   1.400   1_556  A
C1449      C1454   1.396       .  A
C1449      H1456   1.084   1_556  S
C1450      C1451   1.408   1_554  A
C1451      C1452   1.396       .  A
C1451     Br1458   1.919   1_556  S
C1452      C1453   1.402       .  A
C1452      H1457   1.084       .  S
C1453      C1454   1.415       .  A
C1454     Br1455   1.923       .  S
C1459      C1460   1.408       .  A
C1459      C1464   1.401       .  A
C1459      H1466   1.084       .  S
C1460      C1461   1.414       .  A
C1461      C1462   1.413       .  A
C1461     Br1468   1.916       .  S
C1462      C1463   1.411       .  A
C1462      H1467   1.083       .  S
C1463      C1464   1.416       .  A
C1464     Br1465   1.922       .  S
C1469      C1470   1.405       .  A
C1469      C1474   1.395       .  A
C1469      H1476   1.084       .  S
C1470      C1471   1.410       .  A
C1471      C1472   1.403       .  A
C1471     Br1478   1.916       .  S
C1472      C1473   1.408       .  A
C1472      H1477   1.084       .  S
C1473      C1474   1.408       .  A
C1474     Br1475   1.919       .  S
C1479      C1480   1.402       .  A
C1479      C1484   1.400       .  A
C1479      H1486   1.080       .  S
C1480      C1481   1.404       .  A
C1481      C1482   1.398       .  A
C1481     Br1488   1.916       .  S
C1482      C1483   1.407       .  A
C1482      H1487   1.084       .  S
C1483      C1484   1.411       .  A
C1484     Br1485   1.921       .  S
C1489      C1490   1.407       .  A
C1489      C1494   1.408       .  A
C1489      H1496   1.083       .  S
C1490      C1491   1.423       .  A
C1491      C1492   1.396       .  A
C1491     Br1498   1.925       .  S
C1492      C1493   1.396       .  A
C1492      H1497   1.083       .  S
C1493      C1494   1.415       .  A
C1494     Br1495   1.919       .  S
C1499      C1500   1.404       .  A
C1499      C1504   1.403       .  A
C1499      H1506   1.083       .  S
C1500      C1501   1.416       .  A
C1501      C1502   1.409       .  A
C1501     Br1508   1.919       .  S
C1502      C1503   1.404       .  A
C1502      H1507   1.084       .  S
C1503      C1504   1.412       .  A
C1504     Br1505   1.919       .  S
C1509      C1510   1.409       .  A
C1509      C1514   1.404       .  A
C1509      H1516   1.084       .  S
C1510      C1511   1.413       .  A
C1511      C1512   1.402       .  A
C1511     Br1518   1.919       .  S
C1512      C1513   1.407       .  A
C1512      H1517   1.084       .  S
C1513      C1514   1.412       .  A
C1514     Br1515   1.918       .  S
C1519      C1520   1.403       .  A
C1519      C1524   1.402       .  A
C1519      H1526   1.084       .  S
C1520      C1521   1.420       .  A
C1521      C1522   1.401       .  A
C1521     Br1528   1.921       .  S
C1522      C1523   1.402       .  A
C1522      H1527   1.083       .  S
C1523      C1524   1.420       .  A
C1524     Br1525   1.922       .  S
C1529      C1530   1.407       .  A
C1529      C1534   1.410       .  A
C1529      H1536   1.083       .  S
C1530      C1531   1.422       .  A
C1531      C1532   1.398       .  A
C1531     Br1538   1.926       .  S
C1532      C1533   1.397       .  A
C1532      H1537   1.083       .  S
C1533      C1534   1.414       .  A
C1534     Br1535   1.917       .  S
C1539      C1540   1.409   1_556  A
C1539      C1544   1.401       .  A
C1539      H1546   1.083       .  S
C1540      C1541   1.412   1_554  A
C1541      C1542   1.400       .  A
C1541     Br1548   1.918   1_556  S
C1542      C1543   1.404       .  A
C1542      H1547   1.084       .  S
C1543      C1544   1.405       .  A
C1544     Br1545   1.920       .  S
C1549      C1550   1.404       .  A
C1549      C1554   1.404       .  A
C1549      H1556   1.084       .  S
C1550      C1551   1.402       .  A
C1551      C1552   1.395       .  A
C1551     Br1558   1.920       .  S
C1552      C1553   1.410       .  A
C1552      H1557   1.084       .  S
C1553      C1554   1.415       .  A
C1554     Br1555   1.919       .  S
C1559      C1560   1.411       .  A
C1559      C1564   1.396   1_565  A
C1559      H1566   1.083       .  S
C1560      C1561   1.410       .  A
C1561      C1562   1.401   1_565  A
C1561     Br1568   1.919       .  S
C1562      C1563   1.405       .  A
C1562      H1567   1.083       .  S
C1563      C1564   1.399       .  A
C1564     Br1565   1.917       .  S
C1569      C1570   1.408       .  A
C1569      C1574   1.405       .  A
C1569      H1576   1.084       .  S
C1570      C1571   1.406       .  A
C1571      C1572   1.404       .  A
C1571     Br1578   1.916       .  S
C1572      C1573   1.411       .  A
C1572      H1577   1.082       .  S
C1573      C1574   1.412       .  A
C1574     Br1575   1.917       .  S
C1579      C1580   1.406       .  A
C1579      C1584   1.396       .  A
C1579      H1586   1.084       .  S
C1580      C1581   1.413       .  A
C1581      C1582   1.395       .  A
C1581     Br1588   1.921       .  S
C1582      C1583   1.400       .  A
C1582      H1587   1.084       .  S
C1583      C1584   1.408       .  A
C1584     Br1585   1.922       .  S
C1589      C1590   1.402       .  A
C1589      C1594   1.396       .  A
C1589      H1596   1.083       .  S
C1590      C1591   1.411       .  A
C1591      C1592   1.396       .  A
C1591     Br1598   1.921       .  S
C1592      C1593   1.406       .  A
C1592      H1597   1.083       .  S
C1593      C1594   1.418       .  A
C1594     Br1595   1.924       .  S
C1599      C1600   1.418       .  A
C1599      C1604   1.405       .  A
C1599      H1606   1.083       .  S
C1600      C1601   1.407       .  A
C1601      C1602   1.399       .  A
C1601     Br1608   1.920       .  S
C1602      C1603   1.415       .  A
C1602      H1607   1.083       .  S
C1603      C1604   1.409       .  A
C1604     Br1605   1.920       .  S
C1609      C1610   1.405       .  A
C1609      C1614   1.389   1_545  A
C1609      H1616   1.085       .  S
C1610      C1611   1.405       .  A
C1611      C1612   1.399   1_545  A
C1611     Br1618   1.917       .  S
C1612      C1613   1.409       .  A
C1612      H1617   1.084       .  S
C1613      C1614   1.408       .  A
C1614     Br1615   1.922       .  S
C1619      C1620   1.406       .  A
C1619      C1624   1.404       .  A
C1619      H1626   1.084       .  S
C1620      C1621   1.407       .  A
C1621      C1622   1.406       .  A
C1621     Br1628   1.917       .  S
C1622      C1623   1.412       .  A
C1622      H1627   1.082       .  S
C1623      C1624   1.414       .  A
C1624     Br1625   1.917       .  S
C1629      C1630   1.410       .  A
C1629      C1634   1.413       .  A
C1629      H1636   1.083       .  S
C1630      C1631   1.417       .  A
C1631      C1632   1.400       .  A
C1631     Br1638   1.923       .  S
C1632      C1633   1.406       .  A
C1632      H1637   1.083       .  S
C1633      C1634   1.415       .  A
C1634     Br1635   1.917       .  S
C1639      C1640   1.413       .  A
C1639      C1644   1.395       .  A
C1639      H1646   1.083       .  S
C1640      C1641   1.410       .  A
C1641      C1642   1.401       .  A
C1641     Br1648   1.918       .  S
C1642      C1643   1.410       .  A
C1642      H1647   1.083       .  S
C1643      C1644   1.407       .  A
C1644     Br1645   1.922       .  S
C1649      C1650   1.397       .  A
C1649      C1654   1.396       .  A
C1649      H1656   1.084       .  S
C1650      C1651   1.411       .  A
C1651      C1652   1.401       .  A
C1651     Br1658   1.918       .  S
C1652      C1653   1.405       .  A
C1652      H1657   1.084       .  S
C1653      C1654   1.417       .  A
C1654     Br1655   1.921       .  S
C1659      C1660   1.409       .  A
C1659      C1664   1.396   1_655  A
C1659      H1666   1.084       .  S
C1660      C1661   1.404   1_655  A
C1661      C1662   1.401       .  A
C1661     Br1668   1.917   1_455  S
C1662      C1663   1.410       .  A
C1662      H1667   1.084       .  S
C1663      C1664   1.408       .  A
C1664     Br1665   1.920       .  S
C1669      C1670   1.400       .  A
C1669      C1674   1.395       .  A
C1669      H1676   1.084       .  S
C1670      C1671   1.418       .  A
C1671      C1672   1.398       .  A
C1671     Br1678   1.924       .  S
C1672      C1673   1.401       .  A
C1672      H1677   1.084       .  S
C1673      C1674   1.417       .  A
C1674     Br1675   1.922       .  S
C1679      C1680   1.407       .  A
C1679      C1684   1.397       .  A
C1679      H1686   1.084       .  S
C1680      C1681   1.413       .  A
C1681      C1682   1.404       .  A
C1681     Br1688   1.919       .  S
C1682      C1683   1.406       .  A
C1682      H1687   1.084       .  S
C1683      C1684   1.408       .  A
C1684     Br1685   1.919       .  S
C1689      C1690   1.410       .  A
C1689      C1694   1.407   1_554  A
C1689      H1696   1.083   1_554  S
C1690      C1691   1.411       .  A
C1691      C1692   1.408       .  A
C1691     Br1698   1.917       .  S
C1692      C1693   1.409       .  A
C1692      H1697   1.084       .  S
C1693      C1694   1.411   1_554  A
C1694     Br1695   1.920       .  S
C1699      C1700   1.413       .  A
C1699      C1704   1.398       .  A
C1699      H1706   1.083       .  S
C1700      C1701   1.410       .  A
C1701      C1702   1.408       .  A
C1701     Br1708   1.918       .  S
C1702      C1703   1.416       .  A
C1702      H1707   1.083       .  S
C1703      C1704   1.409       .  A
C1704     Br1705   1.922       .  S
C1709      C1710   1.399       .  A
C1709      C1714   1.400       .  A
C1709      H1716   1.084       .  S
C1710      C1711   1.409       .  A
C1711      C1712   1.393       .  A
C1711     Br1718   1.917       .  S
C1712      C1713   1.399       .  A
C1712      H1717   1.084       .  S
C1713      C1714   1.414       .  A
C1714     Br1715   1.921       .  S
C1719      C1720   1.403       .  A
C1719      C1724   1.399   1_655  A
C1719      H1726   1.083       .  S
C1720      C1721   1.403       .  A
C1721      C1722   1.398   1_655  A
C1721     Br1728   1.918       .  S
C1722      C1723   1.409       .  A
C1722      H1727   1.084       .  S
C1723      C1724   1.410       .  A
C1724     Br1725   1.919       .  S
