geometry optimzed in LAMMPS
_audit_creation_date              2020-12-01 
_audit_creation_method            'lammps2cif' 
_symmetry_space_group_name_H-M    'P1' 
_symmetry_Int_Tables_number       1 
_symmetry_cell_setting            triclinic 
loop_ 
_symmetry_equiv_pos_as_xyz 
  x,y,z 
_cell_length_a                    48.88638288 
_cell_length_b                    48.831956221629085 
_cell_length_c                    52.82246991556488 
_cell_angle_alpha                 89.99573656462479 
_cell_angle_beta                  89.98653638159941 
_cell_angle_gamma                 90.05934263742657 
loop_ 
_atom_site_label 
_atom_site_type_symbol 
_atom_site_fract_x 
_atom_site_fract_y 
_atom_site_fract_z 
_atom_site_charge 
O1          O  0.24205856  0.79408264  0.25020935    -0.73000
O2          O  0.23111395  0.72385382  0.21211037    -0.73900
O3          O  0.20077569  0.75362151  0.24855525    -0.62600
O4          O  0.27242350  0.76470866  0.21362659    -0.71000
O5          O  0.29323808  0.74081114  0.24364719    -0.70500
O6          O  0.22181401  0.73225192  0.27997818    -0.61800
O7          O  0.25076454  0.70134981  0.24371090    -0.74300
O8          O  0.26456705  0.77152782  0.28016119    -0.73100
Cu9        Cu  0.23586223  0.75985491  0.23002708     1.04600
Cu10       Cu  0.25832015  0.73567824  0.26292851     1.04300
C11         C  0.25534447  0.79387786  0.27104172     0.93200
C12         C  0.23887866  0.70137494  0.22220198     0.92400
C13         C  0.19989114  0.74147774  0.26995793     0.84500
C14         C  0.29419292  0.75444736  0.22302304     0.90800
C15         C  0.52088543  0.77843762  0.13178799     0.80200
N16         N  0.52178421  0.78390862  0.10663198    -0.78100
C17         C  0.49830603  0.78677387  0.09317238     0.82700
N18         N  0.47387397  0.78421985  0.10522744    -0.78000
C19         C  0.47272860  0.77878173  0.13042492     0.82700
N20         N  0.49639924  0.77573446  0.14353510    -0.79800
C21         C  0.47466944  0.78501540  0.86460804     0.80200
N22         N  0.47503887  0.78944280  0.88999550    -0.78100
C23         C  0.49915426  0.79244165  0.90253507     0.82700
N24         N  0.52298834  0.79088140  0.88944794    -0.78000
C25         C  0.52287780  0.78615336  0.86414531     0.82700
N26         N  0.49869792  0.78307315  0.85186142    -0.79800
C27         C  0.02099846  0.73938808  0.36436602     0.80200
N28         N  0.02117075  0.73851262  0.39004766    -0.78100
C29         C  0.99733736  0.73820005  0.40320784     0.82700
N30         N  0.97327718  0.73913476  0.39045936    -0.78000
C31         C  0.97272790  0.74019890  0.36479676     0.82700
N32         N  0.99674883  0.74010417  0.35187121    -0.79800
C33         C  0.97351015  0.72819234  0.63203181     0.80200
N34         N  0.99730543  0.72845117  0.64528710    -0.78100
C35         C  0.02180809  0.72813800  0.63312816     0.82700
N36         N  0.02217739  0.72789110  0.60738433    -0.78000
C37         C  0.99853069  0.72774553  0.59389117     0.82700
N38         N  0.97425386  0.72780768  0.60637352    -0.79800
O39         O  0.25231695  0.70031703  0.75300253    -0.73000
O40         O  0.26610569  0.77025955  0.71557687    -0.73900
O41         O  0.29528343  0.73971078  0.75201280    -0.62600
O42         O  0.22310854  0.73098484  0.71668663    -0.71000
O43         O  0.20271491  0.75442044  0.74729894    -0.70500
O44         O  0.27462193  0.76209142  0.78318312    -0.61800
O45         O  0.24567416  0.79327248  0.74644842    -0.74300
O46         O  0.23172531  0.72315192  0.78388385    -0.73100
Cu47       Cu  0.25991581  0.73449851  0.73326369     1.04600
Cu48       Cu  0.23798433  0.75905681  0.76628340     1.04300
C49         C  0.23976121  0.70056244  0.77421248     0.93200
C50         C  0.25795937  0.79286692  0.72508596     0.92400
C51         C  0.29631915  0.75233335  0.77317894     0.84500
C52         C  0.20150240  0.74130636  0.72639657     0.90800
C53         C  0.46916586  0.20744406  0.13606955     0.80200
N54         N  0.46939681  0.20308595  0.11066828    -0.78100
C55         C  0.49345219  0.20149123  0.09786451     0.82700
N56         N  0.51733124  0.20422264  0.11074970    -0.78000
C57         C  0.51746994  0.20877919  0.13610153     0.82700
N58         N  0.49324136  0.21047465  0.14859049    -0.79800
C59         C  0.53382688  0.21552218  0.87048136     0.80200
N60         N  0.53238674  0.21198064  0.89596757    -0.78100
C61         C  0.50784806  0.20914995  0.90773942     0.82700
N62         N  0.48459051  0.20993398  0.89372812    -0.78000
C63         C  0.48557331  0.21348686  0.86824286     0.82700
N64         N  0.51028565  0.21636458  0.85673126    -0.79800
C65         C  0.22113772  0.47311105  0.13278122     0.80200
N66         N  0.22368381  0.49763449  0.14465273    -0.78100
C67         C  0.22163269  0.52128313  0.13131771     0.82700
N68         N  0.21757864  0.52036082  0.10591326    -0.78000
C69         C  0.21553087  0.49596072  0.09369744     0.82700
N70         N  0.21723701  0.47245386  0.10733927    -0.79800
C71         C  0.22037895  0.52077241  0.86574047     0.80200
N72         N  0.21500048  0.51967383  0.89095004    -0.78100
C73         C  0.21362221  0.49515261  0.90303200     0.82700
N74         N  0.21723468  0.47170443  0.88966742    -0.78000
C75         C  0.22228109  0.47260767  0.86442479     0.82700
N76         N  0.22410012  0.49719553  0.85258770    -0.79800
C77         C  0.96824391  0.28124642  0.36721896     0.80200
N78         N  0.96921162  0.28386023  0.39283421    -0.78100
C79         C  0.99364793  0.28352410  0.40516031     0.82700
N80         N  0.01711128  0.28064905  0.39161041    -0.78000
C81         C  0.01642259  0.27789696  0.36601712     0.82700
N82         N  0.99188019  0.27808258  0.35406383    -0.79800
C83         C  0.03276799  0.27471990  0.63383721     0.80200
N84         N  0.00894814  0.27516954  0.64706601    -0.78100
C85         C  0.98469313  0.27943495  0.63517836     0.82700
N86         N  0.98441973  0.28295091  0.60966663    -0.78000
C87         C  0.00802112  0.28236298  0.59603238     0.82700
N88         N  0.03216637  0.27840877  0.60831544    -0.79800
C89         C  0.27171319  0.97207311  0.36475239     0.80200
N90         N  0.27157134  0.97210901  0.39048750    -0.78100
C91         C  0.26923535  0.99598035  0.40356149     0.82700
N92         N  0.26719523  0.01992907  0.39064033    -0.78000
C93         C  0.26739563  0.02020305  0.36496078     0.82700
N94         N  0.26972117  0.99622687  0.35225885    -0.79800
C95         C  0.28059088  0.02041811  0.63304740     0.80200
N96         N  0.27975731  0.02047557  0.60730200    -0.78100
C97         C  0.27951607  0.99650614  0.59422236     0.82700
N98         N  0.28018038  0.97247462  0.60709158    -0.78000
C99         C  0.28097593  0.97202643  0.63275212     0.82700
N100        N  0.28111141  0.99612373  0.64553239    -0.79800
O101        O  0.30528418  0.25223284  0.75450511    -0.73000
O102        O  0.23396147  0.26114218  0.71733204    -0.73900
O103        O  0.26342079  0.29285592  0.75320115    -0.62600
O104        O  0.27544721  0.22113739  0.71866760    -0.71000
O105        O  0.25271495  0.19987229  0.74914433    -0.70500
O106        O  0.24306882  0.27138530  0.78509998    -0.61800
O107        O  0.21195153  0.24141455  0.74926137    -0.74300
O108        O  0.28363360  0.22997395  0.78502176    -0.73100
Cu109      Cu  0.27029494  0.25762959  0.73488256     1.04600
Cu110      Cu  0.24709520  0.23494209  0.76824232     1.04300
C111        C  0.30585152  0.23918720  0.77550479     0.93200
C112        C  0.21174659  0.25265623  0.72741214     0.92400
C113        C  0.25145604  0.29345129  0.77468925     0.84500
C114        C  0.26574478  0.19914897  0.72816830     0.90800
O115        O  0.19641463  0.24245774  0.25141552    -0.73000
O116        O  0.26827915  0.23098560  0.21659496    -0.73900
O117        O  0.23680807  0.20067124  0.25146758    -0.62600
O118        O  0.22850840  0.27280828  0.21640190    -0.71000
O119        O  0.24951634  0.29348973  0.24839721    -0.70500
O120        O  0.25796438  0.22137883  0.28322359    -0.61800
O121        O  0.28976792  0.25125823  0.24850370    -0.74300
O122        O  0.21764050  0.26314822  0.28315524    -0.73100
Cu123      Cu  0.23170641  0.23604784  0.23288154     1.04600
Cu124      Cu  0.25442783  0.25807426  0.26693537     1.04300
C125        C  0.19557418  0.25467554  0.27280003     0.93200
C126        C  0.29039823  0.23890839  0.22717435     0.92400
C127        C  0.24920621  0.19951588  0.27273624     0.84500
C128        C  0.23784881  0.29450100  0.22679428     0.90800
O129        O  0.75148215  0.20771754  0.25294207    -0.73000
O130        O  0.75517811  0.27866942  0.21615103    -0.73900
O131        O  0.78919900  0.25179240  0.25172370    -0.62600
O132        O  0.71729756  0.23486877  0.21806323    -0.71000
O133        O  0.69561106  0.25639184  0.24906605    -0.70500
O134        O  0.76688444  0.27031520  0.28403602    -0.61800
O135        O  0.73468415  0.29963586  0.24818275    -0.74300
O136        O  0.72827409  0.22695888  0.28420595    -0.73100
Cu137      Cu  0.75405280  0.24259811  0.23364490     1.04600
Cu138      Cu  0.73058419  0.26408553  0.26748305     1.04300
C139        C  0.73917554  0.20575758  0.27415122     0.93200
C140        C  0.74568247  0.30041936  0.22619347     0.92400
C141        C  0.78930190  0.26336734  0.27344487     0.84500
C142        C  0.69504391  0.24311378  0.22825231     0.90800
C143        C  0.77407042  0.52674272  0.13195696     0.80200
N144        N  0.76807220  0.50299708  0.14425549    -0.78100
C145        C  0.77035119  0.47853940  0.13214450     0.82700
N146        N  0.77844726  0.47796662  0.10758493    -0.78000
C147        C  0.78414109  0.50148039  0.09495985     0.82700
N148        N  0.78218203  0.52578072  0.10735498    -0.79800
C149        C  0.78969596  0.47777611  0.86977846     0.80200
N150        N  0.79602078  0.47945353  0.89476847    -0.78100
C151        C  0.79804105  0.50420195  0.90643705     0.82700
N152        N  0.79364115  0.52738153  0.89278234    -0.78000
C153        C  0.78710548  0.52592418  0.86783864     0.82700
N154        N  0.78521727  0.50110371  0.85647945    -0.79800
C155        C  0.73741326  0.02566023  0.36819533     0.80200
N156        N  0.73703724  0.02566228  0.39387202    -0.78100
C157        C  0.73592417  0.00184955  0.40703367     0.82700
N158        N  0.73507572  0.97771204  0.39431719    -0.78000
C159        C  0.73530070  0.97732230  0.36860632     0.82700
N160        N  0.73642623  0.00136251  0.35566864    -0.79800
C161        C  0.73335894  0.97738001  0.63583077     0.80200
N162        N  0.73198382  0.97780436  0.61017208    -0.78100
C163        C  0.73299732  0.00185204  0.59737112     0.82700
N164        N  0.73571737  0.02561315  0.61044516    -0.78000
C165        C  0.73713274  0.02562396  0.63611307     0.82700
N166        N  0.73595069  0.00134634  0.64866169    -0.79800
O167        O  0.73629284  0.23425069  0.78893239    -0.73000
O168        O  0.80683603  0.24808029  0.75182837    -0.73900
O169        O  0.77549415  0.27688005  0.78791408    -0.62600
O170        O  0.76789559  0.20479834  0.75251088    -0.71000
O171        O  0.74439170  0.22487082  0.72175240    -0.70500
O172        O  0.75241779  0.29723929  0.75709530    -0.61800
O173        O  0.78372120  0.26762607  0.72051997    -0.74300
O174        O  0.71326582  0.25406689  0.75769465    -0.73100
Cu175      Cu  0.77240588  0.24026570  0.77135983     1.04600
Cu176      Cu  0.74766236  0.26168696  0.73817945     1.04300
C177        C  0.71367577  0.24203563  0.77916167     0.93200
C178        C  0.80638746  0.25999121  0.73028994     0.92400
C179        C  0.76522532  0.29848092  0.77817780     0.84500
C180        C  0.75483923  0.20339890  0.73159295     0.90800
O181        O  0.72888200  0.77489308  0.28446763    -0.73000
O182        O  0.74379474  0.70576525  0.24572412    -0.73900
O183        O  0.77261287  0.73731019  0.28163128    -0.62600
O184        O  0.69939435  0.74352034  0.24812133    -0.71000
O185        O  0.71855935  0.76680705  0.21671080    -0.70500
O186        O  0.79098510  0.76236790  0.25098263    -0.61800
O187        O  0.76288377  0.72982452  0.21477527    -0.74300
O188        O  0.74635946  0.79920315  0.25284122    -0.73100
Cu189      Cu  0.73545279  0.73951059  0.26604664     1.04600
Cu190      Cu  0.75532241  0.76539541  0.23274869     1.04300
C191        C  0.73550678  0.79796129  0.27483145     0.93200
C192        C  0.75599442  0.70677566  0.22433795     0.92400
C193        C  0.79332772  0.74911041  0.27169823     0.84500
C194        C  0.69747959  0.75607532  0.22696353     0.90800
O195        O  0.70034967  0.74460189  0.75115988    -0.73000
O196        O  0.77009326  0.73053178  0.71358262    -0.73900
O197        O  0.73910463  0.70111828  0.75031106    -0.62600
O198        O  0.73148876  0.77368608  0.71502519    -0.71000
O199        O  0.75517588  0.79344543  0.74575470    -0.70500
O200        O  0.76153393  0.72179716  0.78144349    -0.61800
O201        O  0.79342686  0.74978210  0.74490991    -0.74300
O202        O  0.72350731  0.76489505  0.78205508    -0.73100
Cu203      Cu  0.73444342  0.73673314  0.73143720     1.04600
Cu204      Cu  0.75925243  0.75815738  0.76457755     1.04300
C205        C  0.70084692  0.75712570  0.77238322     0.93200
C206        C  0.79281518  0.73805846  0.72327322     0.92400
C207        C  0.75125086  0.70019638  0.77173927     0.84500
C208        C  0.74210523  0.79510912  0.72487643     0.90800
C209        C  0.72669429  0.14559945  0.69137039    -0.27600
C210        C  0.74798981  0.12648743  0.69276732     0.02000
C211        C  0.77131201  0.13243309  0.70733618     0.30100
C212        C  0.77318354  0.15744733  0.72018519    -0.19400
C213        C  0.75201220  0.17680414  0.71856719    -0.28800
C214        C  0.72856003  0.17063613  0.70411425     0.44100
C215        C  0.74576422  0.10063418  0.67848652     0.05300
O216        O  0.79283105  0.11444613  0.70815621    -0.57300
H217        H  0.79148680  0.16196523  0.73097719     0.18200
O218        O  0.70692574  0.18847275  0.70312267    -0.64100
H219        H  0.70853130  0.14102774  0.68038879     0.16700
C220        C  0.74303243  0.07542272  0.69103264     0.28900
C221        C  0.74036036  0.05125525  0.67704098    -0.24900
C222        C  0.74029324  0.05172316  0.65036849    -0.24200
C223        C  0.74326370  0.07724245  0.63791122     0.40400
C224        C  0.74569645  0.10135626  0.65200876    -0.26700
O225        O  0.74266037  0.07422661  0.71697353    -0.58600
H226        H  0.73813136  0.03213155  0.68722333     0.16000
O227        O  0.74359850  0.07908455  0.61200695    -0.60000
H228        H  0.74774249  0.12075548  0.64221410     0.14500
H229        H  0.70894594  0.19827489  0.68677286     0.46300
H230        H  0.72343969  0.07804468  0.72182526     0.41700
H231        H  0.76319509  0.07797647  0.60722000     0.45100
H232        H  0.79102012  0.10479824  0.72459208     0.36600
C233        C  0.72622511  0.92349739  0.68737517    -0.27600
C234        C  0.73543214  0.90005193  0.67466626     0.02000
C235        C  0.74364301  0.90205003  0.64923018     0.30100
C236        C  0.74244577  0.92724220  0.63676511    -0.19400
C237        C  0.73342181  0.95088686  0.64943241    -0.28800
C238        C  0.72506680  0.94877812  0.67495192     0.44100
C239        C  0.73651010  0.87353026  0.68803111     0.05300
O240        O  0.75327144  0.87954122  0.63651475    -0.57300
H241        H  0.74917162  0.92833282  0.61724595     0.18200
O242        O  0.71547772  0.97114289  0.68789377    -0.64100
H243        H  0.71967056  0.92210807  0.70693264     0.16700
C244        C  0.75313155  0.87007066  0.70948992     0.28900
C245        C  0.75453121  0.84454660  0.72138783    -0.24900
C246        C  0.73951118  0.82205748  0.71215604    -0.24200
C247        C  0.72238570  0.82583351  0.69089233     0.40400
C248        C  0.72118753  0.85135506  0.67893524    -0.26700
O249        O  0.76843714  0.89140629  0.71872364    -0.58600
H250        H  0.76775358  0.84233424  0.73771187     0.16000
O251        O  0.70678688  0.80480430  0.68150667    -0.60000
H252        H  0.70813118  0.85390813  0.66252758     0.14500
H253        H  0.69569088  0.97208376  0.68378999     0.46300
H254        H  0.78585361  0.89078573  0.70910437     0.41700
H255        H  0.68909939  0.80606641  0.69065426     0.45100
H256        H  0.77325059  0.87931410  0.63980289     0.36600
C257        C  0.74322570  0.92229306  0.31834729    -0.27600
C258        C  0.72891404  0.90030039  0.32926905     0.02000
C259        C  0.71679378  0.90384421  0.35326222     0.30100
C260        C  0.71934515  0.92887574  0.36596692    -0.19400
C261        C  0.73344261  0.95094234  0.35491138    -0.28800
C262        C  0.74544429  0.94743353  0.33086189     0.44100
C263        C  0.72781205  0.87358839  0.31580234     0.05300
O264        O  0.70219823  0.88307383  0.36438239    -0.57300
H265        H  0.70979434  0.93116782  0.38435674     0.18200
O266        O  0.75987920  0.96821504  0.31957662    -0.64100
H267        H  0.75321240  0.91982641  0.30018008     0.16700
C268        C  0.72077415  0.87214771  0.28993443     0.28900
C269        C  0.72297779  0.84731793  0.27686301    -0.24900
C270        C  0.73131567  0.82341525  0.28938968    -0.24200
C271        C  0.73711027  0.82452511  0.31550024     0.40400
C272        C  0.73551605  0.84948732  0.32844819    -0.26700
O273        O  0.71201643  0.89497031  0.27716519    -0.58600
H274        H  0.71816692  0.84673179  0.25684553     0.16000
O275        O  0.74557044  0.80160764  0.32830628    -0.60000
H276        H  0.74131618  0.85016657  0.34823031     0.14500
H277        H  0.77877367  0.96651913  0.32624395     0.46300
H278        H  0.69212852  0.89615531  0.28070877     0.41700
H279        H  0.76570455  0.80103742  0.32601821     0.45100
H280        H  0.68322021  0.88528954  0.35808955     0.36600
C281        C  0.72235125  0.02344937  0.47479451    -0.27600
C282        C  0.73509454  0.00229413  0.48824178     0.02000
C283        C  0.74823259  0.98107839  0.47499397     0.30100
C284        C  0.74819661  0.98102444  0.44852115    -0.19400
C285        C  0.73547040  0.00221934  0.43496091    -0.28800
C286        C  0.72241043  0.02352641  0.44834327     0.44100
C287        C  0.73431994  0.00242948  0.51612682     0.05300
O288        O  0.76132482  0.96045589  0.48777910    -0.57300
H289        H  0.75851553  0.96460350  0.43857835     0.18200
O290        O  0.70915839  0.04422482  0.43580534    -0.64100
H291        H  0.71199014  0.03975188  0.48487162     0.16700
C292        C  0.74731769  0.02330860  0.52992623     0.28900
C293        C  0.74644336  0.02304578  0.55637156    -0.24900
C294        C  0.73256250  0.00214378  0.56940729    -0.24200
C295        C  0.71903117  0.98154063  0.55544687     0.40400
C296        C  0.72016313  0.98170865  0.52899569    -0.26700
O297        O  0.76188300  0.04337776  0.51771528    -0.58600
H298        H  0.75714792  0.03895534  0.56668976     0.16000
O299        O  0.70441529  0.96132278  0.56738674    -0.60000
H300        H  0.70974141  0.96577385  0.51845311     0.14500
H301        H  0.69020274  0.03747436  0.43327966     0.46300
H302        H  0.74942104  0.05935829  0.51693737     0.41700
H303        H  0.68585833  0.96908856  0.56987860     0.45100
H304        H  0.78007634  0.96745387  0.49092908     0.36600
C305        C  0.77560018  0.40235167  0.85740269    -0.27600
C306        C  0.78023251  0.40081919  0.83125025     0.02000
C307        C  0.78858696  0.42432415  0.81801276     0.30100
C308        C  0.79174729  0.44914542  0.83084642    -0.19400
C309        C  0.78694479  0.45092303  0.85703860    -0.28800
C310        C  0.77877903  0.42718605  0.87032725     0.44100
C311        C  0.77625319  0.37462670  0.81782992     0.05300
O312        O  0.79378260  0.42318228  0.79251809    -0.57300
H313        H  0.79817845  0.46703355  0.82025886     0.18200
O314        O  0.77320076  0.42809626  0.89576195    -0.64100
H315        H  0.76905535  0.38431947  0.86772527     0.16700
C316        C  0.79378039  0.35240101  0.82231100     0.28900
C317        C  0.78994929  0.32783585  0.80919640    -0.24900
C318        C  0.76862645  0.32494658  0.79151220    -0.24200
C319        C  0.75101392  0.34733404  0.78709960     0.40400
C320        C  0.75492418  0.37193571  0.80026332    -0.26700
O321        O  0.81531594  0.35486467  0.83879882    -0.58600
H322        H  0.80394168  0.31107352  0.81272254     0.16000
O323        O  0.72934406  0.34510593  0.77073835    -0.60000
H324        H  0.74117386  0.38893961  0.79687894     0.14500
H325        H  0.75365575  0.43339476  0.89695647     0.46300
H326        H  0.80851868  0.34744870  0.85509608     0.41700
H327        H  0.73564427  0.35374726  0.75476853     0.45100
H328        H  0.81334289  0.41800595  0.79113020     0.36600
C329        C  0.75465624  0.57545980  0.82152264    -0.27600
C330        C  0.76983530  0.59935854  0.82599310     0.02000
C331        C  0.79075398  0.59896432  0.84439096     0.30100
C332        C  0.79598533  0.57503559  0.85811646    -0.19400
C333        C  0.78103173  0.55104914  0.85338145    -0.28800
C334        C  0.76016289  0.55142635  0.83495356     0.44100
C335        C  0.76341994  0.62472655  0.81177239     0.05300
O336        O  0.80638003  0.62178775  0.84894674    -0.57300
H337        H  0.81213558  0.57508468  0.87216478     0.18200
O338        O  0.74457172  0.52860493  0.83030583    -0.64100
H339        H  0.73814175  0.57553396  0.80785557     0.16700
C340        C  0.76226743  0.62494250  0.78509437     0.28900
C341        C  0.75741805  0.64953045  0.77217254    -0.24900
C342        C  0.75377406  0.67407573  0.78554160    -0.24200
C343        C  0.75380876  0.67360038  0.81222679     0.40400
C344        C  0.75859779  0.64909554  0.82509206    -0.26700
O345        O  0.76747291  0.60158406  0.77149668    -0.58600
H346        H  0.75749551  0.64955929  0.75165919     0.16000
O347        O  0.74925881  0.69700388  0.82596024    -0.60000
H348        H  0.75865196  0.64914024  0.84560615     0.14500
H349        H  0.72928471  0.52956294  0.84263198     0.46300
H350        H  0.74945545  0.59559070  0.76487275     0.41700
H351        H  0.72906582  0.69879541  0.82691213     0.45100
H352        H  0.82072598  0.62162533  0.83566606     0.36600
C353        C  0.77061714  0.63202350  0.21008956    -0.27600
C354        C  0.76925952  0.63156554  0.18353757     0.02000
C355        C  0.76495691  0.65634617  0.17040741     0.30100
C356        C  0.76142839  0.68085304  0.18390052    -0.19400
C357        C  0.76186032  0.68108571  0.21048197    -0.28800
C358        C  0.76705970  0.65645243  0.22353191     0.44100
C359        C  0.77077280  0.60484302  0.17008729     0.05300
O360        O  0.76218999  0.65648522  0.14455367    -0.57300
H361        H  0.75731621  0.69955180  0.17353719     0.18200
O362        O  0.76861682  0.65596095  0.24945487    -0.64100
H363        H  0.77422794  0.61323938  0.22048429     0.16700
C364        C  0.78938660  0.60031234  0.15015329     0.28900
C365        C  0.78990576  0.57498179  0.13771746    -0.24900
C366        C  0.77257985  0.55346567  0.14526603    -0.24200
C367        C  0.75424863  0.55789397  0.16548067     0.40400
C368        C  0.75346523  0.58335735  0.17764615    -0.26700
O369        O  0.80759087  0.62025346  0.14301823    -0.58600
H370        H  0.80441872  0.57198219  0.12246369     0.16000
O371        O  0.73671309  0.53766527  0.17333578    -0.60000
H372        H  0.73900983  0.58644249  0.19293523     0.14500
H373        H  0.78794025  0.66043044  0.25345230     0.46300
H374        H  0.82366759  0.61774856  0.15422788     0.41700
H375        H  0.72018920  0.53973228  0.16260448     0.45100
H376        H  0.77822797  0.66681612  0.13806556     0.36600
C377        C  0.78982905  0.47987410  0.02602265    -0.27600
C378        C  0.80381451  0.50222882  0.01547124     0.02000
C379        C  0.81276199  0.52350418  0.03145707     0.30100
C380        C  0.80663539  0.52277995  0.05732766    -0.19400
C381        C  0.79192981  0.50077435  0.06782832    -0.28800
C382        C  0.78404364  0.47888430  0.05193049     0.44100
C383        C  0.80641618  0.50423059  0.98756108     0.05300
O384        O  0.82704468  0.54537435  0.02190189    -0.57300
H385        H  0.81327101  0.53963545  0.06917230     0.18200
O386        O  0.76906582  0.45727880  0.06109157    -0.64100
H387        H  0.78234764  0.46356425  0.01395140     0.16700
C388        C  0.81640228  0.48219773  0.97307196     0.28900
C389        C  0.81446827  0.48288379  0.94665060    -0.24900
C390        C  0.80293957  0.50554622  0.93415168    -0.24200
C391        C  0.79446503  0.52829587  0.94870299     0.40400
C392        C  0.79620806  0.52743816  0.97511296    -0.26700
O393        O  0.82738469  0.45955833  0.98458303    -0.58600
H394        H  0.82154595  0.46533954  0.93595038     0.16000
O395        O  0.78325072  0.55101168  0.93752121    -0.60000
H396        H  0.78822674  0.54449150  0.98595004     0.14500
H397        H  0.78255336  0.44245619  0.06405896     0.46300
H398        H  0.84669080  0.46448595  0.98813196     0.41700
H399        H  0.76323439  0.54760812  0.93736658     0.45100
H400        H  0.84627739  0.53906777  0.02080390     0.36600
C401        C  0.75171543  0.35181365  0.17258229    -0.27600
C402        C  0.75396341  0.37658405  0.18588167     0.02000
C403        C  0.75282086  0.37621396  0.21255228     0.30100
C404        C  0.74940349  0.35139733  0.22546441    -0.19400
C405        C  0.74772057  0.32656604  0.21217243    -0.28800
C406        C  0.74875409  0.32697523  0.18545732     0.44100
C407        C  0.75787292  0.40259720  0.17178057     0.05300
O408        O  0.75568960  0.39992129  0.22621869    -0.57300
H409        H  0.74888555  0.35151228  0.24596957     0.18200
O410        O  0.74679347  0.30324550  0.17166814    -0.64100
H411        H  0.75218790  0.35172580  0.15207356     0.16700
C412        C  0.77876562  0.40522410  0.15354060     0.28900
C413        C  0.78219357  0.42990607  0.14051052    -0.24900
C414        C  0.76541425  0.45253684  0.14570657    -0.24200
C415        C  0.74436938  0.44989292  0.16376498     0.40400
C416        C  0.74068607  0.42504784  0.17658337    -0.26700
O417        O  0.79630372  0.38396297  0.14862874    -0.58600
H418        H  0.79853233  0.43156455  0.12672406     0.16000
O419        O  0.72701933  0.47127397  0.16874370    -0.60000
H420        H  0.72420737  0.42324017  0.19020129     0.14500
H421        H  0.72688827  0.29985008  0.16977634     0.46300
H422        H  0.81077444  0.38535820  0.16172250     0.41700
H423        H  0.71190799  0.46933823  0.15633525     0.45100
H424        H  0.77570822  0.40260194  0.22801678     0.36600
C425        C  0.75042686  0.13060604  0.29008489    -0.27600
C426        C  0.73583481  0.12801737  0.31277428     0.02000
C427        C  0.72172205  0.15089856  0.32242750     0.30100
C428        C  0.72287780  0.17601558  0.30969946    -0.19400
C429        C  0.73773560  0.17876545  0.28704301    -0.28800
C430        C  0.75125054  0.15551094  0.27709950     0.44100
C431        C  0.73635135  0.10166826  0.32667644     0.05300
O432        O  0.70680753  0.14896261  0.34435648    -0.57300
H433        H  0.71209166  0.19337078  0.31764666     0.18200
O434        O  0.76602276  0.15692316  0.25505965    -0.64100
H435        H  0.76171027  0.11333576  0.28257920     0.16700
C436        C  0.72941410  0.07685115  0.31470833     0.28900
C437        C  0.73015962  0.05228139  0.32835540    -0.24900
C438        C  0.73789801  0.05189928  0.35399650    -0.24200
C439        C  0.74540498  0.07681434  0.36574609     0.40400
C440        C  0.74452101  0.10131678  0.35210365    -0.26700
O441        O  0.72066449  0.07659462  0.29002462    -0.58600
H442        H  0.72415382  0.03355237  0.31886682     0.16000
O443        O  0.75367563  0.07761031  0.39054395    -0.60000
H444        H  0.75052574  0.12016590  0.36140510     0.14500
H445        H  0.75315768  0.15108316  0.24157241     0.46300
H446        H  0.73593925  0.06851545  0.28020248     0.41700
H447        H  0.77387661  0.07580398  0.38997434     0.45100
H448        H  0.68901283  0.14092208  0.33922909     0.36600
C449        C  0.28608305  0.07295411  0.68606750    -0.27600
C450        C  0.27540712  0.09636190  0.67436110     0.02000
C451        C  0.26684192  0.09479368  0.64893124     0.30100
C452        C  0.26919331  0.07016436  0.63561899    -0.19400
C453        C  0.27950652  0.04652055  0.64740276    -0.28800
C454        C  0.28789837  0.04812545  0.67296835     0.44100
C455        C  0.27358411  0.12238259  0.68868899     0.05300
O456        O  0.25579786  0.11713526  0.63697281    -0.57300
H457        H  0.26231727  0.06948545  0.61613462     0.18200
O458        O  0.29880182  0.02585611  0.68513532    -0.64100
H459        H  0.29324897  0.07393402  0.70545682     0.16700
C460        C  0.26092994  0.12355204  0.71263698     0.28900
C461        C  0.25895820  0.14853321  0.72544529    -0.24900
C462        C  0.26931159  0.17276576  0.71468625    -0.24200
C463        C  0.28246560  0.17137752  0.69088895     0.40400
C464        C  0.28450665  0.14638006  0.67820006    -0.26700
O465        O  0.24999284  0.10050619  0.72352854    -0.58600
H466        H  0.24891175  0.14892126  0.74372339     0.16000
O467        O  0.29291400  0.19434508  0.67947413    -0.60000
H468        H  0.29473257  0.14575548  0.66000826     0.14500
H469        H  0.28477577  0.02022032  0.69768352     0.46300
H470        H  0.23132304  0.09888234  0.71633276     0.41700
H471        H  0.31237847  0.19505771  0.68473730     0.45100
H472        H  0.23615958  0.11705002  0.64170407     0.36600
C473        C  0.27299736  0.14461308  0.31864940    -0.27600
C474        C  0.26040538  0.12125782  0.30857235     0.02000
C475        C  0.24484734  0.12347350  0.28628483     0.30100
C476        C  0.24147633  0.14905190  0.27477464    -0.19400
C477        C  0.25361134  0.17266954  0.28510880    -0.28800
C478        C  0.26991466  0.17011123  0.30706961     0.44100
C479        C  0.26221627  0.09520255  0.32260589     0.05300
O480        O  0.23151057  0.10109018  0.27654035    -0.57300
H481        H  0.22891436  0.15038735  0.25792973     0.18200
O482        O  0.28261826  0.19236819  0.31770280    -0.64100
H483        H  0.28513477  0.14307758  0.33575990     0.16700
C484        C  0.27276588  0.07135848  0.31135973     0.28900
C485        C  0.27408247  0.04708207  0.32531116    -0.24900
C486        C  0.26538525  0.04622430  0.35070771    -0.24200
C487        C  0.25487834  0.07026769  0.36188646     0.40400
C488        C  0.25349999  0.09444999  0.34786848    -0.26700
O489        O  0.28224657  0.07166649  0.28692161    -0.58600
H490        H  0.28240134  0.02899832  0.31627841     0.16000
O491        O  0.24560615  0.07044546  0.38637522    -0.60000
H492        H  0.24526737  0.11270466  0.35669791     0.14500
H493        H  0.30102974  0.19295228  0.30985074     0.46300
H494        H  0.30188941  0.07653859  0.28826305     0.41700
H495        H  0.22594989  0.06550371  0.38524970     0.45100
H496        H  0.24118587  0.09667013  0.26054993     0.36600
C497        C  0.26055772  0.01772173  0.47221199    -0.27600
C498        C  0.27363317  0.99622458  0.48492142     0.02000
C499        C  0.28434632  0.97420642  0.47088293     0.30100
C500        C  0.28227596  0.97412407  0.44448409    -0.19400
C501        C  0.26973885  0.99594484  0.43160654    -0.28800
C502        C  0.25840518  0.01766512  0.44582506     0.44100
C503        C  0.27534297  0.99658615  0.51286903     0.05300
O504        O  0.29719497  0.95282503  0.48278506    -0.57300
H505        H  0.29107681  0.95717574  0.43406373     0.18200
O506        O  0.24488630  0.03882368  0.43425740    -0.64100
H507        H  0.25162514  0.03445570  0.48283608     0.16700
C508        C  0.28768331  0.01854988  0.52583687     0.28900
C509        C  0.28885919  0.01838214  0.55234058    -0.24900
C510        C  0.27786960  0.99643543  0.56624232    -0.24200
C511        C  0.26542647  0.97452477  0.55312136     0.40400
C512        C  0.26415159  0.97482473  0.52670239    -0.26700
O513        O  0.29960052  0.03967527  0.51271088    -0.58600
H514        H  0.29875394  0.03527189  0.56200093     0.16000
O515        O  0.25335865  0.95326472  0.56592680    -0.60000
H516        H  0.25412476  0.95806563  0.51695444     0.14500
H517        H  0.22569799  0.03245653  0.43249488     0.46300
H518        H  0.28656247  0.05514383  0.51403166     0.41700
H519        H  0.26676970  0.93805061  0.56518283     0.45100
H520        H  0.31662598  0.95847995  0.48420043     0.36600
C521        C  0.15915511  0.25222998  0.67470662    -0.27600
C522        C  0.13568492  0.26174033  0.68727236     0.02000
C523        C  0.13741918  0.26808529  0.71329863     0.30100
C524        C  0.16217468  0.26465208  0.72629787    -0.19400
C525        C  0.18568384  0.25563060  0.71355919    -0.28800
C526        C  0.18401027  0.24932791  0.68758989     0.44100
C527        C  0.10950088  0.26470771  0.67316697     0.05300
O528        O  0.11514923  0.27802092  0.72614027    -0.57300
H529        H  0.16317355  0.26965418  0.74626340     0.18200
O530        O  0.20643247  0.23977092  0.67472596    -0.64100
H531        H  0.15814605  0.24669560  0.65487343     0.16700
C532        C  0.10816688  0.27959534  0.65033011     0.28900
C533        C  0.08318636  0.28232200  0.63752850    -0.24900
C534        C  0.05914570  0.27049418  0.64719214    -0.24200
C535        C  0.06061977  0.25520611  0.66984751     0.40400
C536        C  0.08558773  0.25242898  0.68257068    -0.26700
O537        O  0.13088219  0.29275155  0.64108365    -0.58600
H538        H  0.08253536  0.29433264  0.62029248     0.16000
O539        O  0.03785855  0.24267723  0.67969746    -0.60000
H540        H  0.08630316  0.24044469  0.69982112     0.14500
H541        H  0.20653777  0.21970746  0.67769988     0.46300
H542        H  0.13668568  0.28192762  0.62613746     0.41700
H543        H  0.03668441  0.22475753  0.67091433     0.45100
H544        H  0.11481718  0.29792920  0.72241290     0.36600
C545        C  0.91057213  0.29044560  0.65512578    -0.27600
C546        C  0.90944851  0.27576915  0.67799242     0.02000
C547        C  0.93339063  0.26285002  0.68686922     0.30100
C548        C  0.95773512  0.26471768  0.67295019    -0.19400
C549        C  0.95878581  0.27905169  0.64989766    -0.28800
C550        C  0.93486705  0.29216274  0.64113233     0.44100
C551        C  0.88286098  0.27288532  0.69155591     0.05300
O552        O  0.93272137  0.24672635  0.70815203    -0.57300
H553        H  0.97566668  0.25410308  0.67992286     0.18200
O554        O  0.93486118  0.30664444  0.61888549    -0.64100
H555        H  0.89243522  0.30058841  0.64800320     0.16700
C556        C  0.88051853  0.27784242  0.71779707     0.28900
C557        C  0.85560579  0.27323730  0.73020441    -0.24900
C558        C  0.83234162  0.26491576  0.71666994    -0.24200
C559        C  0.83429784  0.26113210  0.69030416     0.40400
C560        C  0.85941089  0.26491610  0.67800613    -0.26700
O561        O  0.90227173  0.28764439  0.73146018    -0.58600
H562        H  0.85430434  0.27675457  0.75042517     0.16000
O563        O  0.81196323  0.25306916  0.67646007    -0.60000
H564        H  0.86066610  0.26111758  0.65783087     0.14500
H565        H  0.94051316  0.32547844  0.62361197     0.46300
H566        H  0.90210553  0.30774008  0.72875288     0.41700
H567        H  0.81253679  0.23276009  0.67650052     0.45100
H568        H  0.94505313  0.25577170  0.72053170     0.36600
C569        C  0.06776955  0.27315316  0.31177404    -0.27600
C570        C  0.09193568  0.26689699  0.32483480     0.02000
C571        C  0.09106482  0.26391341  0.35133346     0.30100
C572        C  0.06647684  0.26769728  0.36439601    -0.19400
C573        C  0.04218314  0.27411715  0.35144078    -0.28800
C574        C  0.04306063  0.27670865  0.32476232     0.44100
C575        C  0.11810508  0.26420402  0.31083227     0.05300
O576        O  0.11416226  0.25713671  0.36466472    -0.57300
H577        H  0.06647840  0.26528504  0.38478037     0.18200
O578        O  0.02004190  0.28290113  0.31108135    -0.64100
H579        H  0.06812691  0.27581675  0.29141653     0.16700
C580        C  0.12074427  0.24615252  0.29019331     0.28900
C581        C  0.14597674  0.24346159  0.27786216    -0.24900
C582        C  0.16889478  0.25871313  0.28568106    -0.24200
C583        C  0.16592650  0.27735347  0.30593422     0.40400
C584        C  0.14076400  0.27988918  0.31830509    -0.26700
O585        O  0.09916131  0.23006666  0.28276245    -0.58600
H586        H  0.14767234  0.22897677  0.26240932     0.16000
O587        O  0.18742390  0.29322426  0.31390002    -0.60000
H588        H  0.13890407  0.29430100  0.33380744     0.14500
H589        H  0.01979579  0.30318137  0.30995694     0.46300
H590        H  0.09250196  0.23829295  0.26674862     0.41700
H591        H  0.18662985  0.30996828  0.30328549     0.45100
H592        H  0.11416719  0.23683679  0.36538315     0.36600
C593        C  0.86400710  0.27887192  0.28678131    -0.27600
C594        C  0.86519774  0.27541736  0.31318867     0.02000
C595        C  0.84098715  0.26887021  0.32640682     0.30100
C596        C  0.81632436  0.26577775  0.31327012    -0.19400
C597        C  0.81538985  0.26828114  0.28680661    -0.28800
C598        C  0.83946605  0.27505275  0.27357594     0.44100
C599        C  0.89184612  0.27772313  0.32663429     0.05300
O600        O  0.84131197  0.26465267  0.35207917    -0.57300
H601        H  0.79801816  0.26045415  0.32375407     0.18200
O602        O  0.83922880  0.27813835  0.24776870    -0.64100
H603        H  0.88220832  0.28448761  0.27629917     0.16700
C604        C  0.91502393  0.26337300  0.31796699     0.28900
C605        C  0.93967232  0.26498495  0.33131187    -0.24900
C606        C  0.94180929  0.28060215  0.35354624    -0.24200
C607        C  0.91875316  0.29524858  0.36209829     0.40400
C608        C  0.89409436  0.29382673  0.34861349    -0.26700
O609        O  0.91338227  0.24647594  0.29726112    -0.58600
H610        H  0.95704924  0.25336914  0.32448759     0.16000
O611        O  0.92009983  0.31119557  0.38343394    -0.60000
H612        H  0.87666360  0.30541901  0.35533670     0.14500
H613        H  0.83511527  0.29777280  0.24485648     0.46300
H614        H  0.92385616  0.25587768  0.28372458     0.41700
H615        H  0.92601809  0.32950882  0.37740557     0.45100
H616        H  0.84623318  0.24509289  0.35426153     0.36600
C617        C  0.97676545  0.27608804  0.47514747    -0.27600
C618        C  0.99976354  0.28822498  0.48649126     0.02000
C619        C  0.02029689  0.29944798  0.47090321     0.30100
C620        C  0.01793139  0.29791333  0.44452435    -0.19400
C621        C  0.99497188  0.28570116  0.43313800    -0.28800
C622        C  0.97415696  0.27494022  0.44874683     0.44100
C623        C  0.00249021  0.28823445  0.51452745     0.05300
O624        O  0.04277863  0.31198625  0.48126114    -0.57300
H625        H  0.03408638  0.30648940  0.43291706     0.18200
O626        O  0.95197326  0.26180716  0.43846571    -0.64100
H627        H  0.96100029  0.26691121  0.48681996     0.16700
C628        C  0.98137967  0.29823511  0.53011699     0.28900
C629        C  0.98366750  0.29653091  0.55649015    -0.24900
C630        C  0.00702378  0.28514966  0.56796492    -0.24200
C631        C  0.02845342  0.27569367  0.55226182     0.40400
C632        C  0.02604155  0.27730249  0.52586412    -0.26700
O633        O  0.95834796  0.30968956  0.51976140    -0.58600
H634        H  0.96699739  0.30419370  0.56798789     0.16000
O635        O  0.05159916  0.26421429  0.56236173    -0.60000
H636        H  0.04238921  0.26927933  0.51417262     0.14500
H637        H  0.93708132  0.27559388  0.43850224     0.46300
H638        H  0.96316083  0.32914074  0.51668746     0.41700
H639        H  0.04766975  0.24430195  0.56336864     0.45100
H640        H  0.03720172  0.33127256  0.48401572     0.36600
C641        C  0.24813951  0.42005704  0.81744890    -0.27600
C642        C  0.23233151  0.39710800  0.82397285     0.02000
C643        C  0.21278364  0.39937656  0.84346207     0.30100
C644        C  0.20984175  0.42405450  0.85654706    -0.19400
C645        C  0.22571383  0.44696932  0.85008245    -0.28800
C646        C  0.24483926  0.44490219  0.83022030     0.44100
C647        C  0.23714760  0.37064360  0.81108046     0.05300
O648        O  0.19643306  0.37759709  0.84984730    -0.57300
H649        H  0.19483124  0.42538358  0.87159566     0.18200
O650        O  0.26095439  0.46676673  0.82359621    -0.64100
H651        H  0.26357954  0.41854898  0.80280659     0.16700
C652        C  0.23719052  0.36868295  0.78447850     0.28900
C653        C  0.24218746  0.34343581  0.77284526    -0.24900
C654        C  0.24700317  0.31989956  0.78742118    -0.24200
C655        C  0.24714168  0.32192153  0.81401631     0.40400
C656        C  0.24231705  0.34715314  0.82562112    -0.26700
O657        O  0.23112352  0.39104007  0.76977888    -0.58600
H658        H  0.24172050  0.34215860  0.75236852     0.16000
O659        O  0.25234023  0.29947026  0.82885795    -0.60000
H660        H  0.24291255  0.34844314  0.84609229     0.14500
H661        H  0.27737206  0.46539063  0.83455430     0.46300
H662        H  0.24868655  0.39654695  0.76186982     0.41700
H663        H  0.27255865  0.29861310  0.83026801     0.45100
H664        H  0.18068192  0.37852729  0.83804744     0.36600
C665        C  0.21094989  0.39949158  0.15372815    -0.27600
C666        C  0.22720218  0.39841039  0.17560642     0.02000
C667        C  0.24123159  0.42216670  0.18347359     0.30100
C668        C  0.23874584  0.44643896  0.16952132    -0.19400
C669        C  0.22275376  0.44738575  0.14745815    -0.28800
C670        C  0.20868484  0.42361250  0.13968411     0.44100
C671        C  0.23010906  0.37197727  0.18918816     0.05300
O672        O  0.25881238  0.42135231  0.20372166    -0.57300
H673        H  0.25002524  0.46437439  0.17562526     0.18200
O674        O  0.19254074  0.42366406  0.11846052    -0.64100
H675        H  0.19990571  0.38147255  0.14746231     0.16700
C676        C  0.22616989  0.36992155  0.21557633     0.28900
C677        C  0.22934823  0.34465440  0.22770040    -0.24900
C678        C  0.23522292  0.32096287  0.21371537    -0.24200
C679        C  0.23848271  0.32283795  0.18730431     0.40400
C680        C  0.23614488  0.34820568  0.17529198    -0.26700
O681        O  0.21844350  0.39224059  0.22960021    -0.58600
H682        H  0.22638375  0.34341345  0.24800175     0.16000
O683        O  0.24431460  0.30007093  0.17308331    -0.60000
H684        H  0.23919094  0.34933097  0.15499817     0.14500
H685        H  0.17389554  0.42815593  0.12458525     0.46300
H686        H  0.19821366  0.39288141  0.22827523     0.41700
H687        H  0.26454936  0.29859985  0.17321690     0.45100
H688        H  0.25095954  0.43398000  0.21652774     0.36600
C689        C  0.20472586  0.47043735  0.02621404    -0.27600
C690        C  0.20933445  0.49438486  0.01220673     0.02000
C691        C  0.21494729  0.51897972  0.02511429     0.30100
C692        C  0.21628697  0.51926136  0.05155390    -0.19400
C693        C  0.21238608  0.49514327  0.06569997    -0.28800
C694        C  0.20620968  0.47060795  0.05265199     0.44100
C695        C  0.20907106  0.49337990  0.98415926     0.05300
O696        O  0.21979744  0.54277654  0.01205011    -0.57300
H697        H  0.22105011  0.53841625  0.06091144     0.18200
O698        O  0.20178813  0.44654067  0.06537722    -0.64100
H699        H  0.19994208  0.45143504  0.01659323     0.16700
C700        C  0.22554655  0.47452400  0.97094934     0.28900
C701        C  0.22611985  0.47483841  0.94448587    -0.24900
C702        C  0.21066435  0.49398162  0.93079193    -0.24200
C703        C  0.19376700  0.51247003  0.94394218     0.40400
C704        C  0.19285182  0.51188581  0.97042993    -0.26700
O705        O  0.24244770  0.45689246  0.98376122    -0.58600
H706        H  0.23951122  0.46069930  0.93467789     0.16000
O707        O  0.17754422  0.53065557  0.93106968    -0.60000
H708        H  0.17962393  0.52611529  0.98030397     0.14500
H709        H  0.18178247  0.44592222  0.06846298     0.42300
H710        H  0.23385511  0.43859067  0.98203987     0.41700
H711        H  0.18765470  0.54827027  0.93145290     0.45100
H712        H  0.23957081  0.54236597  0.00785453     0.36600
C713        C  0.43324596  0.21245333  0.81463078    -0.27600
C714        C  0.40978899  0.22241273  0.82700900     0.02000
C715        C  0.41156120  0.22893876  0.85297098     0.30100
C716        C  0.43612170  0.22529166  0.86605786    -0.19400
C717        C  0.45971384  0.21585922  0.85366070    -0.28800
C718        C  0.45807827  0.20933581  0.82766702     0.44100
C719        C  0.38350076  0.22585746  0.81301942     0.05300
O720        O  0.38950036  0.23945307  0.86572402    -0.57300
H721        H  0.43682317  0.23065289  0.88595039     0.18200
O722        O  0.48045976  0.19965424  0.81483257    -0.64100
H723        H  0.43228411  0.20677050  0.79483681     0.16700
C724        C  0.38222464  0.23985386  0.78969858     0.28900
C725        C  0.35690442  0.24407711  0.77778882    -0.24900
C726        C  0.33241495  0.23445814  0.78866106    -0.24200
C727        C  0.33386000  0.22009166  0.81185280     0.40400
C728        C  0.35914048  0.21577893  0.82361571    -0.26700
O729        O  0.40541605  0.25069226  0.77901050    -0.58600
H730        H  0.35651430  0.25516086  0.76002926     0.16000
O731        O  0.31069024  0.21062840  0.82361250    -0.60000
H732        H  0.35964634  0.20452451  0.84128467     0.14500
H733        H  0.48015632  0.17953020  0.81742251     0.46300
H734        H  0.40946222  0.23888508  0.76420633     0.41700
H735        H  0.30905305  0.19117871  0.81839778     0.45100
H736        H  0.39105279  0.25960099  0.86381604     0.36600
C737        C  0.61021160  0.21353374  0.85604054    -0.27600
C738        C  0.61140033  0.22768391  0.83291306     0.02000
C739        C  0.58694793  0.23802994  0.82247450     0.30100
C740        C  0.56195220  0.23358398  0.83472014    -0.19400
C741        C  0.56071031  0.21945061  0.85786128    -0.28800
C742        C  0.58526818  0.20956036  0.86858823     0.44100
C743        C  0.63799900  0.23095025  0.81947613     0.05300
O744        O  0.58724057  0.25279177  0.80038420    -0.57300
H745        H  0.54350089  0.24172627  0.82623096     0.18200
O746        O  0.58520446  0.19562216  0.89113218    -0.64100
H747        H  0.62864003  0.20502301  0.86423659     0.16700
C748        C  0.66158747  0.24053095  0.83209891     0.28900
C749        C  0.68627992  0.24349150  0.81884301    -0.24900
C750        C  0.68780614  0.23747366  0.79292110    -0.24200
C751        C  0.66434434  0.22786303  0.78030325     0.40400
C752        C  0.63985297  0.22427219  0.79364201    -0.26700
O753        O  0.66034510  0.24841422  0.85700779    -0.58600
H754        H  0.70410580  0.25127467  0.82869959     0.16000
O755        O  0.66543831  0.22091813  0.75515857    -0.60000
H756        H  0.62221743  0.21617574  0.78372356     0.14500
H757        H  0.58267074  0.17610129  0.88649419     0.46300
H758        H  0.67078755  0.23434786  0.86648331     0.41700
H759        H  0.65772809  0.23687054  0.74600592     0.45100
H760        H  0.59089565  0.27196319  0.80559060     0.36600
C761        C  0.36535047  0.22286751  0.21585788    -0.27600
C762        C  0.36662008  0.22280975  0.18925734     0.02000
C763        C  0.34249162  0.22785986  0.17536405     0.30100
C764        C  0.31784501  0.23275699  0.18799161    -0.19400
C765        C  0.31678072  0.23352538  0.21452005    -0.28800
C766        C  0.34080030  0.22844008  0.22848424     0.44100
C767        C  0.39319548  0.21810256  0.17620050     0.05300
O768        O  0.34281600  0.22863267  0.14941139    -0.57300
H769        H  0.29958128  0.23662607  0.17693667     0.18200
O770        O  0.34047569  0.22846018  0.25445511    -0.64100
H771        H  0.38345463  0.21845330  0.22694332     0.16700
C772        C  0.41704084  0.23222861  0.18370633     0.28900
C773        C  0.44167151  0.22800019  0.17084650    -0.24900
C774        C  0.44300493  0.21036703  0.14989355    -0.24200
C775        C  0.41924303  0.19614706  0.14238723     0.40400
C776        C  0.39473808  0.19982879  0.15567631    -0.26700
O777        O  0.41641025  0.25078515  0.20318944    -0.58600
H778        H  0.45963564  0.23928008  0.17684337     0.16000
O779        O  0.41970946  0.17847388  0.12221088    -0.60000
H780        H  0.37685494  0.18831171  0.14988701     0.14500
H781        H  0.33517375  0.20958157  0.25934947     0.46300
H782        H  0.41084087  0.26834908  0.19530073     0.41700
H783        H  0.42588170  0.16071359  0.12929250     0.45100
H784        H  0.34741297  0.24784068  0.14502227     0.36600
C785        C  0.62038708  0.24704051  0.20839687    -0.27600
C786        C  0.61854339  0.22496874  0.19150201     0.02000
C787        C  0.64172830  0.20852979  0.18723824     0.30100
C788        C  0.66647976  0.21472938  0.19923261    -0.19400
C789        C  0.66849474  0.23700643  0.21597030    -0.28800
C790        C  0.64501220  0.25301665  0.22074166     0.44100
C791        C  0.59273111  0.22005445  0.17754970     0.05300
O792        O  0.64039505  0.18635256  0.17135146    -0.57300
H793        H  0.68409901  0.20188042  0.19558042     0.18200
O794        O  0.64618100  0.27533905  0.23646606    -0.64100
H795        H  0.60279598  0.26006536  0.21162887     0.16700
C796        C  0.56778312  0.21639413  0.19038518     0.28900
C797        C  0.54356486  0.21271035  0.17668317    -0.24900
C798        C  0.54365650  0.21252563  0.15002442    -0.24200
C799        C  0.56881730  0.21631645  0.13724453     0.40400
C800        C  0.59298626  0.21986648  0.15102117    -0.26700
O801        O  0.56686744  0.21629246  0.21633791    -0.58600
H802        H  0.52467311  0.20986306  0.18707713     0.16000
O803        O  0.57016772  0.21691793  0.11131738    -0.60000
H804        H  0.61200719  0.22305760  0.14089542     0.14500
H805        H  0.63863042  0.26892071  0.25286289     0.46300
H806        H  0.56945160  0.19687154  0.22126975     0.41700
H807        H  0.56803432  0.23649199  0.10667817     0.45100
H808        H  0.63394613  0.17099437  0.18210556     0.36600
C809        C  0.52440418  0.21168559  0.97814264    -0.27600
C810        C  0.50114516  0.19918487  0.98863938     0.02000
C811        C  0.48037459  0.18970261  0.97238747     0.30100
C812        C  0.48289251  0.19307220  0.94619059    -0.19400
C813        C  0.50617704  0.20554302  0.93559765    -0.28800
C814        C  0.52713075  0.21476607  0.95190624     0.44100
C815        C  0.49825634  0.19738630  0.01656550     0.05300
O816        O  0.45748427  0.17712736  0.98192208    -0.57300
H817        H  0.46656996  0.18567238  0.93411743     0.18200
O818        O  0.54967434  0.22813816  0.94258998    -0.64100
H819        H  0.54029821  0.21968043  0.99038715     0.16700
C820        C  0.51933262  0.18656298  0.03173138     0.28900
C821        C  0.51717827  0.18739821  0.05813351    -0.24900
C822        C  0.49394899  0.19857441  0.06993451    -0.24200
C823        C  0.47239913  0.20845737  0.05468727     0.40400
C824        C  0.47472423  0.20786651  0.02829226    -0.26700
O825        O  0.54228490  0.17541549  0.02093678    -0.58600
H826        H  0.53388508  0.17944118  0.06941642     0.16000
O827        O  0.44941889  0.21976521  0.06527939    -0.60000
H828        H  0.45843100  0.21654744  0.01695247     0.14500
H829        H  0.56439972  0.21417810  0.94223999     0.46300
H830        H  0.53762736  0.15592692  0.01787672     0.41700
H831        H  0.45360469  0.23956102  0.06705425     0.45100
H832        H  0.46191801  0.15731529  0.98213172     0.36600
C833        C  0.24951839  0.86517591  0.70039238    -0.27600
C834        C  0.27238792  0.86781822  0.68451118     0.02000
C835        C  0.29059634  0.84564477  0.68202378     0.30100
C836        C  0.28558852  0.82123507  0.69523629    -0.19400
C837        C  0.26272982  0.81869122  0.71120994    -0.28800
C838        C  0.24461855  0.84094951  0.71367137     0.44100
C839        C  0.27688535  0.89414039  0.67118860     0.05300
O840        O  0.31403526  0.84821179  0.66789696    -0.57300
H841        H  0.29994130  0.80445848  0.69338343     0.18200
O842        O  0.22185847  0.83919652  0.72877653    -0.64100
H843        H  0.23522721  0.88199216  0.70237824     0.16700
C844        C  0.27974559  0.89540597  0.64469848     0.28900
C845        C  0.28188244  0.92080720  0.63261607    -0.24900
C846        C  0.28051667  0.94542228  0.64646021    -0.24200
C847        C  0.27764845  0.94397123  0.67306466     0.40400
C848        C  0.27617065  0.91855687  0.68511570    -0.26700
O849        O  0.27946577  0.87203923  0.63030120    -0.58600
H850        H  0.28393388  0.92111520  0.61220294     0.16000
O851        O  0.27578118  0.96712776  0.68761027    -0.60000
H852        H  0.27384460  0.91792602  0.70551341     0.14500
H853        H  0.20745091  0.83109978  0.71785849     0.46300
H854        H  0.25984132  0.86794610  0.62737930     0.41700
H855        H  0.25589858  0.97088275  0.68908268     0.45100
H856        H  0.31191934  0.83524743  0.65357549     0.36600
C857        C  0.24421904  0.57749493  0.82214467    -0.27600
C858        C  0.22551820  0.59839377  0.82787146     0.02000
C859        C  0.20501810  0.59356713  0.84609105     0.30100
C860        C  0.20378764  0.56826405  0.85856707    -0.19400
C861        C  0.22247358  0.54740377  0.85276961    -0.28800
C862        C  0.24280408  0.55216771  0.83438850     0.44100
C863        C  0.22764764  0.62491223  0.81436699     0.05300
O864        O  0.18523557  0.61286056  0.85070455    -0.57300
H865        H  0.18775470  0.56470143  0.87235583     0.18200
O866        O  0.26161573  0.53235092  0.82846665    -0.64100
H867        H  0.26015355  0.58092744  0.80823075     0.16700
C868        C  0.23017034  0.64983221  0.82762470     0.28900
C869        C  0.23329791  0.67441729  0.81430907    -0.24900
C870        C  0.23479714  0.67454441  0.78775466    -0.24200
C871        C  0.23225028  0.64959994  0.77451586     0.40400
C872        C  0.22854820  0.62511805  0.78782042    -0.26700
O873        O  0.23049326  0.65032465  0.85358230    -0.58600
H874        H  0.23548403  0.69333539  0.82483858     0.16000
O875        O  0.23252566  0.64899747  0.74855052    -0.60000
H876        H  0.22650896  0.60614259  0.77734782     0.14500
H877        H  0.27687953  0.53509005  0.84058408     0.46300
H878        H  0.24968040  0.64626501  0.85837721     0.41700
H879        H  0.25138036  0.64348360  0.74388725     0.45100
H880        H  0.18802008  0.61873182  0.86850846     0.36600
C881        C  0.14432908  0.71334458  0.68514950    -0.27600
C882        C  0.12446434  0.73383154  0.68775489     0.02000
C883        C  0.12979280  0.75652082  0.70341139     0.30100
C884        C  0.15480124  0.75854636  0.71616779    -0.19400
C885        C  0.17493013  0.73825396  0.71331494    -0.28800
C886        C  0.16936385  0.71534404  0.69786586     0.44100
C887        C  0.09834956  0.73157937  0.67381710     0.05300
O888        O  0.11083270  0.77701256  0.70604954    -0.57300
H889        H  0.15867865  0.77633058  0.72790246     0.18200
O890        O  0.18806663  0.69460915  0.69531041    -0.64100
H891        H  0.14030273  0.69564711  0.67334497     0.16700
C892        C  0.09786989  0.73230844  0.64724609     0.28900
C893        C  0.07290855  0.73104201  0.63435426    -0.24900
C894        C  0.04797895  0.72875835  0.64758182    -0.24200
C895        C  0.04869339  0.72753376  0.67436164     0.40400
C896        C  0.07373300  0.72901576  0.68717728    -0.26700
O897        O  0.12165249  0.73542705  0.63375725    -0.58600
H898        H  0.07319647  0.73213244  0.61387802     0.16000
O899        O  0.02521633  0.72444798  0.68829371    -0.60000
H900        H  0.07395262  0.72813094  0.70767688     0.14500
H901        H  0.18433260  0.68197494  0.70961464     0.46300
H902        H  0.12676177  0.71668966  0.62830324     0.41700
H903        H  0.02015630  0.74322412  0.69371656     0.45100
H904        H  0.11389360  0.78934578  0.69140386     0.36600
C905        C  0.84481575  0.73243810  0.67016937    -0.27600
C906        C  0.86915083  0.72830899  0.68379468     0.02000
C907        C  0.86782955  0.72580702  0.71037637     0.30100
C908        C  0.84284156  0.72886449  0.72293136    -0.19400
C909        C  0.81863292  0.73352487  0.70935544    -0.28800
C910        C  0.81967939  0.73477359  0.68270289     0.44100
C911        C  0.89588584  0.72792314  0.67035932     0.05300
O912        O  0.89088047  0.72047563  0.72432344    -0.57300
H913        H  0.84237240  0.72741814  0.74339805     0.18200
O914        O  0.79643147  0.73918879  0.66875190    -0.64100
H915        H  0.84534577  0.73469452  0.64977527     0.16700
C916        C  0.89996726  0.71196147  0.64842569     0.28900
C917        C  0.92521278  0.71256868  0.63591940    -0.24900
C918        C  0.94695394  0.72837613  0.64531569    -0.24200
C919        C  0.94291651  0.74434672  0.66717979     0.40400
C920        C  0.91752832  0.74419916  0.67936793    -0.26700
O921        O  0.87958420  0.69540020  0.63924007    -0.58600
H922        H  0.92799856  0.70013432  0.61912580     0.16000
O923        O  0.96344248  0.76063943  0.67650959    -0.60000
H924        H  0.91465354  0.75717161  0.69578813     0.14500
H925        H  0.79540286  0.75932742  0.66649952     0.46300
H926        H  0.88198012  0.67765632  0.64809325     0.41700
H927        H  0.96164310  0.77827572  0.66732848     0.45100
H928        H  0.89340199  0.70035282  0.72330807     0.36600
C929        C  0.89648077  0.74192530  0.34996746    -0.27600
C930        C  0.89678046  0.74230243  0.32347654     0.02000
C931        C  0.92192336  0.74221500  0.31059457     0.30100
C932        C  0.94638608  0.74164766  0.32425929    -0.19400
C933        C  0.94630303  0.74113051  0.35092276    -0.28800
C934        C  0.92086233  0.74147827  0.36372698     0.44100
C935        C  0.87067075  0.74340209  0.30955143     0.05300
O936        O  0.92279222  0.74253960  0.28463885    -0.57300
H937        H  0.96545574  0.74149327  0.31382095     0.18200
O938        O  0.91936924  0.74119493  0.38964660    -0.64100
H939        H  0.87719104  0.74236753  0.36007264     0.16700
C940        C  0.85064028  0.72304913  0.31299232     0.28900
C941        C  0.82559751  0.72507868  0.30039754    -0.24900
C942        C  0.82013672  0.74731602  0.28433135    -0.24200
C943        C  0.84031358  0.76764662  0.28084617     0.40400
C944        C  0.86538571  0.76551391  0.29336631    -0.26700
O945        O  0.85576019  0.70067958  0.32797837    -0.58600
H946        H  0.81048914  0.70908784  0.30309095     0.16000
O947        O  0.83559742  0.78996510  0.26569857    -0.60000
H948        H  0.88056583  0.78147310  0.29085183     0.14500
H949        H  0.91833531  0.76073824  0.39471134     0.46300
H950        H  0.84536019  0.70392700  0.34380913     0.41700
H951        H  0.82648955  0.80355898  0.27682088     0.45100
H952        H  0.92144223  0.72305365  0.27947010     0.36600
C953        C  0.97673416  0.72281760  0.47099040    -0.27600
C954        C  0.99886300  0.73382179  0.48449783     0.02000
C955        C  0.02059641  0.74607320  0.47112848     0.30100
C956        C  0.01996580  0.74715622  0.44467304    -0.19400
C957        C  0.99762386  0.73649584  0.43114566    -0.28800
C958        C  0.97595240  0.72408460  0.44458424     0.44100
C959        C  0.99892263  0.73244947  0.51250729     0.05300
O960        O  0.04235390  0.75740767  0.48374754    -0.57300
H961        H  0.03679750  0.75683233  0.43474885     0.18200
O962        O  0.95408359  0.71270006  0.43216854    -0.64100
H963        H  0.96006749  0.71293174  0.48097886     0.16700
C964        C  0.97649498  0.74217906  0.52658729     0.28900
C965        C  0.97654894  0.74011722  0.55295708    -0.24900
C966        C  0.99899704  0.72882293  0.56587014    -0.24200
C967        C  0.02152924  0.71916904  0.55173871     0.40400
C968        C  0.02132319  0.72100334  0.52529180    -0.26700
O969        O  0.95452879  0.75407636  0.51476736    -0.58600
H970        H  0.95911466  0.74793254  0.56334704     0.16000
O971        O  0.04372063  0.70761509  0.56347152    -0.60000
H972        H  0.03858627  0.71311643  0.51470025     0.14500
H973        H  0.95998182  0.69388173  0.42768012     0.46300
H974        H  0.95971812  0.77356220  0.51247854     0.41700
H975        H  0.03954465  0.68775332  0.56438563     0.45100
H976        H  0.03671471  0.77646319  0.48759166     0.36600
C977        C  0.39955414  0.78771612  0.84620702    -0.27600
C978        C  0.39888453  0.76974437  0.82543282     0.02000
C979        C  0.42344447  0.75737114  0.81739037     0.30100
C980        C  0.44795513  0.76300140  0.83000900    -0.19400
C981        C  0.44851367  0.78047810  0.85112464    -0.28800
C982        C  0.42400994  0.79299037  0.85910996     0.44100
C983        C  0.37261674  0.76440851  0.81210078     0.05300
O984        O  0.42369867  0.73938351  0.79744942    -0.57300
H985        H  0.46650595  0.75305295  0.82359430     0.18200
O986        O  0.42373529  0.81070047  0.87926065    -0.64100
H987        H  0.38108562  0.79801909  0.85230222     0.16700
C988        C  0.34865823  0.75761622  0.82561596     0.28900
C989        C  0.32395242  0.75368019  0.81267750    -0.24900
C990        C  0.32276111  0.75585711  0.78622527    -0.24200
C991        C  0.34678092  0.76194506  0.77263745     0.40400
C992        C  0.37132463  0.76658477  0.78559399    -0.26700
O993        O  0.34945381  0.75369548  0.85133635    -0.58600
H994        H  0.30571767  0.74854172  0.82334739     0.16000
O995        O  0.34617989  0.76484030  0.74681372    -0.60000
H996        H  0.38933870  0.77230187  0.77487255     0.14500
H997        H  0.42706163  0.82907127  0.87184339     0.46300
H998        H  0.33931337  0.76935427  0.85872587     0.41700
H999        H  0.35257484  0.74702448  0.74003302     0.45100
H1000       H  0.41938154  0.72127230  0.80495192     0.36600
C1001       C  0.57691614  0.75987589  0.81897527    -0.27600
C1002       C  0.59959835  0.77586558  0.82584004     0.02000
C1003       C  0.59674784  0.79572032  0.84500391     0.30100
C1004       C  0.57156236  0.79895313  0.85728203    -0.19400
C1005       C  0.54893879  0.78285378  0.85047016    -0.28800
C1006       C  0.55175245  0.76322341  0.83109922     0.44100
C1007       C  0.62587778  0.77178008  0.81244040     0.05300
O1008       O  0.61803685  0.81293111  0.85089218    -0.57300
H1009       H  0.56961190  0.81437527  0.87192338     0.18200
O1010       O  0.53023580  0.74678433  0.82420525    -0.64100
H1011       H  0.57883048  0.74446521  0.80432087     0.16700
C1012       C  0.65024279  0.76624194  0.82574247     0.28900
C1013       C  0.67466023  0.76212456  0.81248480    -0.24900
C1014       C  0.67504799  0.76253391  0.78591955    -0.24200
C1015       C  0.65063319  0.76779389  0.77261808     0.40400
C1016       C  0.62634144  0.77239966  0.78588421    -0.26700
O1017       O  0.65029425  0.76403355  0.85162631    -0.58600
H1018       H  0.69319308  0.75777438  0.82298858     0.16000
O1019       O  0.65030930  0.76874803  0.74666584    -0.60000
H1020       H  0.60776417  0.77657204  0.77538541     0.14500
H1021       H  0.53098827  0.73091308  0.83590995     0.46300
H1022       H  0.64454775  0.74493619  0.85519474     0.41700
H1023       H  0.65473625  0.78801063  0.74229342     0.45100
H1024       H  0.62320622  0.80839971  0.86857186     0.36600
C1025       C  0.62124074  0.76041794  0.21392550    -0.27600
C1026       C  0.62110808  0.76402737  0.18754306     0.02000
C1027       C  0.64613093  0.76443232  0.17433844     0.30100
C1028       C  0.67070462  0.76182962  0.18749809    -0.19400
C1029       C  0.67092830  0.75823640  0.21386205    -0.28800
C1030       C  0.64589323  0.75739983  0.22709599     0.44100
C1031       C  0.59495072  0.76789380  0.17389824     0.05300
O1032       O  0.64681657  0.76725216  0.14850541    -0.57300
H1033       H  0.68969670  0.76231898  0.17692403     0.18200
O1034       O  0.64525033  0.75424554  0.25289169    -0.64100
H1035       H  0.60221032  0.76047733  0.22442969     0.16700
C1036       C  0.57303761  0.74942570  0.17696699     0.28900
C1037       C  0.54881198  0.75328657  0.16332950    -0.24900
C1038       C  0.54628730  0.77514822  0.14627673    -0.24200
C1039       C  0.56807426  0.79367785  0.14330742     0.40400
C1040       C  0.59206396  0.79013256  0.15724540    -0.26700
O1041       O  0.57567942  0.72678502  0.19215897    -0.58600
H1042       H  0.53221696  0.73875671  0.16559042     0.16000
O1043       O  0.56602268  0.81547054  0.12703268    -0.60000
H1044       H  0.60851650  0.80482116  0.15502041     0.14500
H1045       H  0.64659225  0.77306786  0.25984364     0.46300
H1046       H  0.56423895  0.73058343  0.20725473     0.41700
H1047       H  0.55737356  0.83028274  0.13707356     0.45100
H1048       H  0.64442802  0.74845304  0.14175001     0.36600
C1049       C  0.47794147  0.80361711  0.02553513    -0.27600
C1050       C  0.50102095  0.79474996  0.01204420     0.02000
C1051       C  0.52391290  0.78505879  0.02552323     0.30100
C1052       C  0.52308782  0.78353456  0.05196066    -0.19400
C1053       C  0.49944109  0.79111728  0.06541870    -0.28800
C1054       C  0.47692633  0.80174587  0.05190749     0.44100
C1055       C  0.50042542  0.79474372  0.98396489     0.05300
O1056       O  0.54686037  0.77617689  0.01304459    -0.57300
H1057       H  0.54071227  0.77539170  0.06183888     0.18200
O1058       O  0.45366445  0.81014145  0.06415559    -0.64100
H1059       H  0.46042924  0.81181507  0.01552935     0.16700
C1060       C  0.47849432  0.78254072  0.97083210     0.28900
C1061       C  0.47805901  0.78271360  0.94438481    -0.24900
C1062       C  0.49950091  0.79453718  0.93048331    -0.24200
C1063       C  0.52154846  0.80667612  0.94362656     0.40400
C1064       C  0.52178679  0.80684257  0.97013772    -0.26700
O1065       O  0.45819218  0.76896695  0.98369307    -0.58600
H1066       H  0.46123702  0.77269375  0.93475369     0.16000
O1067       O  0.54301719  0.81834679  0.93083228    -0.60000
H1068       H  0.53869153  0.81653604  0.97992583     0.14500
H1069       H  0.45699085  0.82960671  0.06855735     0.46300
H1070       H  0.44166144  0.78055776  0.98192531     0.41700
H1071       H  0.53753924  0.83765274  0.92799039     0.45100
H1072       H  0.54356336  0.75647931  0.00959944     0.36600
C1073       C  0.26720400  0.91981152  0.31153499    -0.27600
C1074       C  0.27106148  0.89528415  0.32475418     0.02000
C1075       C  0.27714994  0.89610264  0.35075744     0.30100
C1076       C  0.27811944  0.92126546  0.36340132    -0.19400
C1077       C  0.27295490  0.94592279  0.35045095    -0.28800
C1078       C  0.26795055  0.94494208  0.32406670     0.44100
C1079       C  0.26706434  0.86905148  0.31135686     0.05300
O1080       O  0.28135415  0.87240028  0.36412971    -0.57300
H1081       H  0.28234429  0.92133611  0.38353001     0.18200
O1082       O  0.26323490  0.96825336  0.31025879    -0.64100
H1083       H  0.26292360  0.91942208  0.29140428     0.16700
C1084       C  0.24225990  0.86365490  0.29872737     0.28900
C1085       C  0.23889564  0.83925724  0.28533682    -0.24900
C1086       C  0.25978756  0.81965121  0.28482050    -0.24200
C1087       C  0.28452854  0.82486936  0.29766199     0.40400
C1088       C  0.28804178  0.84949639  0.31080472    -0.26700
O1089       O  0.22106685  0.88202484  0.29959059    -0.58600
H1090       H  0.21966740  0.83539301  0.27576790     0.16000
O1091       O  0.30556187  0.80630772  0.29707108    -0.60000
H1092       H  0.30728995  0.85351784  0.32027457     0.14500
H1093       H  0.24305058  0.97037808  0.30997379     0.46300
H1094       H  0.21090861  0.87754499  0.31531854     0.41700
H1095       H  0.31560849  0.81024610  0.28115410     0.45100
H1096       H  0.26299651  0.86687811  0.37030877     0.36600
C1097       C  0.20667111  0.59385808  0.15195535    -0.27600
C1098       C  0.22755517  0.59837887  0.16968203     0.02000
C1099       C  0.24649761  0.57733898  0.17474941     0.30100
C1100       C  0.24419202  0.55214246  0.16234396    -0.19400
C1101       C  0.22350963  0.54779536  0.14439964    -0.28800
C1102       C  0.20459934  0.56880383  0.13930648     0.44100
C1103       C  0.22931379  0.62499406  0.18295051     0.05300
O1104       O  0.26750848  0.58133556  0.19156247    -0.57300
H1105       H  0.25891176  0.53614512  0.16637286     0.18200
O1106       O  0.18365623  0.56483827  0.12242105    -0.64100
H1107       H  0.19173008  0.60970517  0.14814675     0.16700
C1108       C  0.23094098  0.64976892  0.16936474     0.28900
C1109       C  0.23330331  0.67462810  0.18234913    -0.24900
C1110       C  0.23441194  0.67516864  0.20890423    -0.24200
C1111       C  0.23195917  0.65039819  0.22247195     0.40400
C1112       C  0.22952462  0.62560628  0.20948194    -0.26700
O1113       O  0.23086688  0.64985235  0.14339773    -0.58600
H1114       H  0.23508702  0.69343768  0.17158994     0.16000
O1115       O  0.23178421  0.65014793  0.24844098    -0.60000
H1116       H  0.22771259  0.60675061  0.22017410     0.14500
H1117       H  0.16901037  0.55560201  0.13225095     0.46300
H1118       H  0.25015504  0.64660982  0.13841089     0.41700
H1119       H  0.21243994  0.65335608  0.25327731     0.45100
H1120       H  0.28265999  0.58915266  0.18136070     0.36600
C1121       C  0.36767174  0.74560343  0.20129432    -0.27600
C1122       C  0.37035746  0.76741348  0.18421896     0.02000
C1123       C  0.34809815  0.78508499  0.18015738     0.30100
C1124       C  0.32341521  0.78056214  0.19284503    -0.19400
C1125       C  0.32060012  0.75867379  0.20995253    -0.28800
C1126       C  0.34311354  0.74122218  0.21423854     0.44100
C1127       C  0.39637236  0.77121994  0.17046833     0.05300
O1128       O  0.35031911  0.80689756  0.16391815    -0.57300
H1129       H  0.30651833  0.79442797  0.18946335     0.18200
O1130       O  0.34103575  0.71915144  0.23018698    -0.64100
H1131       H  0.38460772  0.73168820  0.20434895     0.16700
C1132       C  0.42107390  0.77464551  0.18368485     0.28900
C1133       C  0.44563622  0.77708856  0.17038754    -0.24900
C1134       C  0.44611920  0.77632400  0.14375281    -0.24200
C1135       C  0.42117330  0.77306945  0.13054636     0.40400
C1136       C  0.39660243  0.77067646  0.14394321    -0.26700
O1137       O  0.42140132  0.77569746  0.20963478    -0.58600
H1138       H  0.46435067  0.77976527  0.18108241     0.16000
O1139       O  0.42045245  0.77184280  0.10461955    -0.60000
H1140       H  0.37767975  0.76782316  0.13358608     0.14500
H1141       H  0.34913263  0.72534835  0.24642957     0.46300
H1142       H  0.41851895  0.79526444  0.21390658     0.41700
H1143       H  0.42240598  0.75213373  0.10044027     0.45100
H1144       H  0.35846226  0.82185225  0.17415921     0.36600
C1145       C  0.14606968  0.72665725  0.32016310    -0.27600
C1146       C  0.12217658  0.73559068  0.30801292     0.02000
C1147       C  0.12382871  0.74562285  0.28308303     0.30100
C1148       C  0.14918765  0.74694806  0.27086395    -0.19400
C1149       C  0.17327224  0.73847150  0.28313303    -0.28800
C1150       C  0.17145347  0.72814553  0.30805228     0.44100
C1151       C  0.09610866  0.73609904  0.32227879     0.05300
O1152       O  0.10109606  0.75590431  0.27116973    -0.57300
H1153       H  0.14995961  0.75517360  0.25183011     0.18200
O1154       O  0.19429949  0.71979857  0.32097711    -0.64100
H1155       H  0.14509501  0.71890008  0.33936611     0.16700
C1156       C  0.07214076  0.72389649  0.31267720     0.28900
C1157       C  0.04770256  0.72562787  0.32633838    -0.24900
C1158       C  0.04690835  0.73863220  0.35004705    -0.24200
C1159       C  0.07103718  0.75033280  0.35987342     0.40400
C1160       C  0.09531100  0.74906765  0.34597711    -0.26700
O1161       O  0.07247930  0.70976334  0.29024571    -0.58600
H1162       H  0.02946823  0.71613010  0.31864434     0.16000
O1163       O  0.07110635  0.76338662  0.38286523    -0.60000
H1164       H  0.11356941  0.75856736  0.35362499     0.14500
H1165       H  0.20058240  0.73620504  0.33041734     0.46300
H1166       H  0.07785104  0.69082217  0.29482106     0.41700
H1167       H  0.06594009  0.78260811  0.37911467     0.45100
H1168       H  0.09740420  0.74326508  0.25686474     0.36600
loop_ 
_geom_bond_atom_site_label_1 
_geom_bond_atom_site_label_2 
_geom_bond_distance 
_geom_bond_site_symmetry_2 
_ccdc_geom_bond_type 
O1           Cu9   2.005       .  S
O1           C11   1.278       .  A
O2           Cu9   2.010       .  S
O2           C12   1.278       .  A
O3           Cu9   1.998       .  S
O3           C13   1.277       .  A
O4           Cu9   2.000       .  S
O4           C14   1.277       .  A
O5          Cu10   2.003       .  S
O5           C14   1.278       .  A
O6          Cu10   2.006       .  S
O6           C13   1.278       .  A
O7          Cu10   1.994       .  S
O7           C12   1.276       .  A
O8          Cu10   1.996       .  S
O8           C11   1.276       .  A
Cu9         Cu10   2.371       .  S
C11        C1086   1.470       .  S
C12        C1110   1.476       .  S
C13        C1149   1.483       .  S
C14        C1125   1.478       .  S
C15        C1038   1.468       .  S
C15          N16   1.356       .  A
C15          N20   1.355       .  A
N16          C17   1.358       .  A
C17        C1053   1.482       .  S
C17          N18   1.359       .  A
N18          C19   1.358       .  A
C19        C1134   1.484       .  S
C19          N20   1.357       .  A
C21         C981   1.480       .  S
C21          N22   1.358       .  A
C21          N26   1.357       .  A
N22          C23   1.360       .  A
C23        C1062   1.480       .  S
C23          N24   1.357       .  A
N24          C25   1.356       .  A
C25        C1005   1.473       .  S
C25          N26   1.357       .  A
C27        C1158   1.476       .  S
C27          N28   1.357       .  A
C27          N32   1.357   1_455  A
N28          C29   1.357   1_455  A
C29         C957   1.478       .  S
C29          N30   1.356       .  A
N30          C31   1.357       .  A
C31         C933   1.486       .  S
C31          N32   1.358       .  A
C33         C918   1.476       .  S
C33          N34   1.358       .  A
C33          N38   1.356       .  A
N34          C35   1.359   1_655  A
C35         C894   1.490       .  S
C35          N36   1.360       .  A
N36          C37   1.358   1_455  A
C37         C966   1.481       .  S
C37          N38   1.358       .  A
O39         Cu47   2.002       .  S
O39          C49   1.277       .  A
O40         Cu47   2.003       .  S
O40          C50   1.277       .  A
O41         Cu47   2.009       .  S
O41          C51   1.278       .  A
O42         Cu47   2.008       .  S
O42          C52   1.278       .  A
O43         Cu48   2.007       .  S
O43          C52   1.278       .  A
O44         Cu48   2.007       .  S
O44          C51   1.278       .  A
O45         Cu48   2.007       .  S
O45          C50   1.278       .  A
O46         Cu48   2.008       .  S
O46          C49   1.278       .  A
Cu47        Cu48   2.373       .  S
C49         C870   1.478       .  S
C50         C837   1.477       .  S
C51         C990   1.475       .  S
C52         C885   1.479       .  S
C53         C774   1.480       .  S
C53          N54   1.359       .  A
C53          N58   1.358       .  A
N54          C55   1.359       .  A
C55         C822   1.482       .  S
C55          N56   1.358       .  A
N56          C57   1.358       .  A
C57         C798   1.488       .  S
C57          N58   1.358       .  A
C59         C741   1.486       .  S
C59          N60   1.359       .  A
C59          N64   1.362       .  A
N60          C61   1.358       .  A
C61         C813   1.484       .  S
C61          N62   1.357       .  A
N62          C63   1.358       .  A
C63         C717   1.485       .  S
C63          N64   1.360       .  A
C65         C669   1.478       .  S
C65          N66   1.357       .  A
C65          N70   1.358       .  A
N66          C67   1.356       .  A
C67        C1101   1.470       .  S
C67          N68   1.357       .  A
N68          C69   1.359       .  A
C69         C693   1.487       .  S
C69          N70   1.358       .  A
C71         C861   1.473       .  S
C71          N72   1.358       .  A
C71          N76   1.357       .  A
N72          C73   1.358       .  A
C73         C702   1.475       .  S
C73          N74   1.357       .  A
N74          C75   1.357       .  A
C75         C645   1.473       .  S
C75          N76   1.357       .  A
C77         C606   1.481       .  S
C77          N78   1.360       .  A
C77          N82   1.357       .  A
N78          C79   1.361       .  A
C79         C621   1.483       .  S
C79          N80   1.359   1_655  A
N80          C81   1.359       .  A
C81         C573   1.488       .  S
C81          N82   1.356   1_455  A
C83         C534   1.485       .  S
C83          N84   1.358       .  A
C83          N88   1.360       .  A
N84          C85   1.358   1_455  A
C85         C549   1.486       .  S
C85          N86   1.359       .  A
N86          C87   1.360   1_655  A
C87         C630   1.490       .  S
C87          N88   1.361       .  A
C89        C1077   1.485       .  S
C89          N90   1.359       .  A
C89          N94   1.355       .  A
N90          C91   1.360       .  A
C91         C501   1.482       .  S
C91          N92   1.358   1_565  A
N92          C93   1.357       .  A
C93         C486   1.480       .  S
C93          N94   1.354   1_545  A
C95         C453   1.484       .  S
C95          N96   1.361       .  A
C95         N100   1.358   1_545  A
N96          C97   1.359   1_545  A
C97         C510   1.480       .  S
C97          N98   1.357       .  A
N98          C99   1.356       .  A
C99         C846   1.487       .  S
C99         N100   1.357       .  A
O101       Cu109   2.018       .  S
O101        C111   1.279       .  A
O102       Cu109   2.011       .  S
O102        C112   1.278       .  A
O103       Cu109   2.002       .  S
O103        C113   1.277       .  A
O104       Cu109   1.993       .  S
O104        C114   1.276       .  A
O105       Cu110   2.007       .  S
O105        C114   1.278       .  A
O106       Cu110   2.000       .  S
O106        C113   1.277       .  A
O107       Cu110   2.015       .  S
O107        C112   1.278       .  A
O108       Cu110   2.009       .  S
O108        C111   1.278       .  A
Cu109      Cu110   2.370       .  S
C111        C726   1.491       .  S
C112        C525   1.477       .  S
C113        C654   1.473       .  S
C114        C462   1.483       .  S
O115       Cu123   2.008       .  S
O115        C125   1.278       .  A
O116       Cu123   2.000       .  S
O116        C126   1.277       .  A
O117       Cu123   2.003       .  S
O117        C127   1.278       .  A
O118       Cu123   2.001       .  S
O118        C128   1.277       .  A
O119       Cu124   2.002       .  S
O119        C128   1.277       .  A
O120       Cu124   1.995       .  S
O120        C127   1.276       .  A
O121       Cu124   2.011       .  S
O121        C126   1.278       .  A
O122       Cu124   2.007       .  S
O122        C125   1.278       .  A
Cu123      Cu124   2.372       .  S
C125        C582   1.484       .  S
C126        C765   1.476       .  S
C127        C477   1.481       .  S
C128        C678   1.471       .  S
O129       Cu137   1.989       .  S
O129        C139   1.275       .  A
O130       Cu137   1.990       .  S
O130        C140   1.275       .  A
O131       Cu137   2.016       .  S
O131        C141   1.279       .  A
O132       Cu137   2.012       .  S
O132        C142   1.279       .  A
O133       Cu138   2.003       .  S
O133        C142   1.277       .  A
O134       Cu138   2.001       .  S
O134        C141   1.277       .  A
O135       Cu138   2.023       .  S
O135        C140   1.280       .  A
O136       Cu138   2.020       .  S
O136        C139   1.280       .  A
Cu137      Cu138   2.369       .  S
C139        C429   1.485       .  S
C140        C405   1.479       .  S
C141        C597   1.477       .  S
C142        C789   1.481       .  S
C143        C366   1.484       .  S
C143        N144   1.361       .  A
C143        N148   1.359       .  A
N144        C145   1.360       .  A
C145        C414   1.477       .  S
C145        N146   1.357       .  A
N146        C147   1.356       .  A
C147        C381   1.483       .  S
C147        N148   1.359       .  A
C149        C309   1.480       .  S
C149        N150   1.358       .  A
C149        N154   1.356       .  A
N150        C151   1.360       .  A
C151        C390   1.485       .  S
C151        N152   1.359       .  A
N152        C153   1.358       .  A
C153        C333   1.476       .  S
C153        N154   1.356       .  A
C155        C438   1.485       .  S
C155        N156   1.356       .  A
C155        N160   1.359       .  A
N156        C157   1.356       .  A
C157        C285   1.475       .  S
C157        N158   1.357   1_545  A
N158        C159   1.358       .  A
C159        C261   1.480       .  S
C159        N160   1.359   1_565  A
C161        C237   1.480       .  S
C161        N162   1.357       .  A
C161        N166   1.358   1_565  A
N162        C163   1.356   1_565  A
C163        C294   1.477       .  S
C163        N164   1.357       .  A
N164        C165   1.358       .  A
C165        C222   1.488       .  S
C165        N166   1.359       .  A
O167       Cu175   2.016       .  S
O167        C177   1.278       .  A
O168       Cu175   2.010       .  S
O168        C178   1.278       .  A
O169       Cu175   1.996       .  S
O169        C179   1.277       .  A
O170       Cu175   2.010       .  S
O170        C180   1.278       .  A
O171       Cu176   2.003       .  S
O171        C180   1.277       .  A
O172       Cu176   2.016       .  S
O172        C179   1.279       .  A
O173       Cu176   2.015       .  S
O173        C178   1.278       .  A
O174       Cu176   2.007       .  S
O174        C177   1.277       .  A
Cu175      Cu176   2.373       .  S
C177        C750   1.475       .  S
C178        C558   1.478       .  S
C179        C318   1.481       .  S
C180        C213   1.476       .  S
O181       Cu189   2.009       .  S
O181        C191   1.277       .  A
O182       Cu189   2.009       .  S
O182        C192   1.278       .  A
O183       Cu189   1.998       .  S
O183        C193   1.277       .  A
O184       Cu189   2.011       .  S
O184        C194   1.278       .  A
O185       Cu190   1.988       .  S
O185        C194   1.276       .  A
O186       Cu190   1.998       .  S
O186        C193   1.277       .  A
O187       Cu190   2.014       .  S
O187        C192   1.278       .  A
O188       Cu190   2.011       .  S
O188        C191   1.278       .  A
Cu189      Cu190   2.373       .  S
C191        C270   1.476       .  S
C192        C357   1.481       .  S
C193        C942   1.474       .  S
C194       C1029   1.475       .  S
O195       Cu203   2.003       .  S
O195        C205   1.277       .  A
O196       Cu203   2.005       .  S
O196        C206   1.277       .  A
O197       Cu203   2.018       .  S
O197        C207   1.279       .  A
O198       Cu203   2.007       .  S
O198        C208   1.278       .  A
O199       Cu204   2.000       .  S
O199        C208   1.277       .  A
O200       Cu204   1.990       .  S
O200        C207   1.276       .  A
O201       Cu204   2.010       .  S
O201        C206   1.279       .  A
O202       Cu204   2.004       .  S
O202        C205   1.277       .  A
Cu203      Cu204   2.372       .  S
C205       C1014   1.474       .  S
C206        C909   1.477       .  S
C207        C342   1.474       .  S
C208        C246   1.483       .  S
C209        C210   1.401       .  A
C209        C214   1.399       .  A
C209        H219   1.084       .  S
C210        C215   1.475       .  S
C210        C211   1.406       .  A
C211        C212   1.400       .  A
C211        O216   1.372       .  S
C212        C213   1.405       .  A
C212        H217   1.084       .  S
C213        C214   1.410       .  A
C214        O218   1.372       .  S
C215        C220   1.404       .  A
C215        C224   1.399       .  A
O216        H232   0.992       .  S
O218        H229   0.992       .  S
C220        C221   1.399       .  A
C220        O225   1.372       .  S
C221        C222   1.409       .  A
C221        H226   1.083       .  S
C222        C223   1.416       .  A
C223        C224   1.398       .  A
C223        O227   1.371       .  S
C224        H228   1.084       .  S
O225        H230   0.992       .  S
O227        H231   0.992       .  S
C233        C234   1.402       .  A
C233        C238   1.399       .  A
C233        H243   1.084       .  S
C234        C239   1.476       .  S
C234        C235   1.406       .  A
C235        C236   1.397       .  A
C235        O240   1.372       .  S
C236        C237   1.406       .  A
C236        H241   1.083       .  S
C237        C238   1.412       .  A
C238        O242   1.371       .  S
C239        C244   1.405       .  A
C239        C248   1.401       .  A
O240        H256   0.992       .  S
O242        H253   0.992       .  S
C244        C245   1.398       .  A
C244        O249   1.372       .  S
C245        C246   1.408       .  A
C245        H250   1.083       .  S
C246        C247   1.413       .  A
C247        C248   1.398       .  A
C247        O251   1.371       .  S
C248        H252   1.084       .  S
O249        H254   0.992       .  S
O251        H255   0.992       .  S
C257        C258   1.405       .  A
C257        C262   1.398       .  A
C257        H267   1.083       .  S
C258        C263   1.487       .  S
C258        C259   1.410       .  A
C259        C260   1.400       .  A
C259        O264   1.372       .  S
C260        C261   1.405       .  A
C260        H265   1.084       .  S
C261        C262   1.410       .  A
C262        O266   1.372       .  S
C263        C268   1.411       .  A
C263        C272   1.405       .  A
O264        H280   0.992       .  S
O266        H277   0.992       .  S
C268        C269   1.400       .  A
C268        O273   1.372       .  S
C269        C270   1.403       .  A
C269        H274   1.084       .  S
C270        C271   1.409       .  A
C271        C272   1.400       .  A
C271        O275   1.372       .  S
C272        H276   1.083       .  S
O273        H278   0.992       .  S
O275        H279   0.992       .  S
C281        C282   1.400       .  A
C281        C286   1.397       .  A
C281        H291   1.084       .  S
C282        C287   1.473       .  S
C282        C283   1.406   1_545  A
C283        C284   1.398       .  A
C283        O288   1.372       .  S
C284        C285   1.405   1_565  A
C284        H289   1.084       .  S
C285        C286   1.411       .  A
C286        O290   1.372       .  S
C287        C292   1.405       .  A
C287        C296   1.401   1_545  A
O288        H304   0.992       .  S
O290        H301   0.992       .  S
C292        C293   1.398       .  A
C292        O297   1.372       .  S
C293        C294   1.405       .  A
C293        H298   1.083       .  S
C294        C295   1.412   1_545  A
C295        C296   1.398       .  A
C295        O299   1.372       .  S
C296        H300   1.084       .  S
O297        H302   0.991       .  S
O299        H303   0.992       .  S
C305        C306   1.402       .  A
C305        C310   1.400       .  A
C305        H315   1.084       .  S
C306        C311   1.475       .  S
C306        C307   1.404       .  A
C307        C308   1.397       .  A
C307        O312   1.372       .  S
C308        C309   1.406       .  A
C308        H313   1.083       .  S
C309        C310   1.412       .  A
C310        O314   1.372       .  S
C311        C316   1.404       .  A
C311        C320   1.402       .  A
O312        H328   0.992       .  S
O314        H325   0.992       .  S
C316        C317   1.398       .  A
C316        O321   1.372       .  S
C317        C318   1.407       .  A
C317        H322   1.083       .  S
C318        C319   1.412       .  A
C319        C320   1.401       .  A
C319        O323   1.372       .  S
C320        H324   1.084       .  S
O321        H326   0.991       .  S
O323        H327   0.992       .  S
C329        C330   1.402       .  A
C329        C334   1.398       .  A
C329        H339   1.083       .  S
C330        C335   1.483       .  S
C330        C331   1.411       .  A
C331        C332   1.399       .  A
C331        O336   1.372       .  S
C332        C333   1.403       .  A
C332        H337   1.084       .  S
C333        C334   1.410       .  A
C334        O338   1.372       .  S
C335        C340   1.410       .  A
C335        C344   1.403       .  A
O336        H352   0.992       .  S
O338        H349   0.992       .  S
C340        C341   1.402       .  A
C340        O345   1.372       .  S
C341        C342   1.403       .  A
C341        H346   1.084       .  S
C342        C343   1.410       .  A
C343        C344   1.396       .  A
C343        O347   1.372       .  S
C344        H348   1.084       .  S
O345        H350   0.992       .  S
O347        H351   0.992       .  S
C353        C354   1.404       .  A
C353        C358   1.399       .  A
C353        H363   1.084       .  S
C354        C359   1.488       .  S
C354        C355   1.411       .  A
C355        C356   1.404       .  A
C355        O360   1.372       .  S
C356        C357   1.404       .  A
C356        H361   1.084       .  S
C357        C358   1.410       .  A
C358        O362   1.372       .  S
C359        C364   1.409       .  A
C359        C368   1.405       .  A
O360        H376   0.993       .  S
O362        H373   0.992       .  S
C364        C365   1.401       .  A
C364        O369   1.371       .  S
C365        C366   1.407       .  A
C365        H370   1.084       .  S
C366        C367   1.411       .  A
C367        C368   1.400       .  A
C367        O371   1.371       .  S
C368        H372   1.084       .  S
O369        H374   0.992       .  S
O371        H375   0.992       .  S
C377        C378   1.403       .  A
C377        C382   1.398       .  A
C377        H387   1.084       .  S
C378        C383   1.483   1_554  S
C378        C379   1.408       .  A
C379        C380   1.399       .  A
C379        O384   1.372       .  S
C380        C381   1.406       .  A
C380        H385   1.083       .  S
C381        C382   1.413       .  A
C382        O386   1.372       .  S
C383        C388   1.408       .  A
C383        C392   1.402       .  A
O384        H400   0.991       .  S
O386        H397   0.992       .  S
C388        C389   1.399       .  A
C388        O393   1.372       .  S
C389        C390   1.407       .  A
C389        H394   1.083       .  S
C390        C391   1.413       .  A
C391        C392   1.398       .  A
C391        O395   1.372       .  S
C392        H396   1.084       .  S
O393        H398   0.992       .  S
O395        H399   0.992       .  S
C401        C402   1.403       .  A
C401        C406   1.398       .  A
C401        H411   1.084       .  S
C402        C407   1.485       .  S
C402        C403   1.410       .  A
C403        C404   1.400       .  A
C403        O408   1.371       .  S
C404        C405   1.404       .  A
C404        H409   1.083       .  S
C405        C406   1.412       .  A
C406        O410   1.372       .  S
C407        C412   1.410       .  A
C407        C416   1.405       .  A
O408        H424   0.992       .  S
O410        H421   0.992       .  S
C412        C413   1.398       .  A
C412        O417   1.372       .  S
C413        C414   1.404       .  A
C413        H418   1.084       .  S
C414        C415   1.409       .  A
C415        C416   1.401       .  A
C415        O419   1.371       .  S
C416        H420   1.083       .  S
O417        H422   0.992       .  S
O419        H423   0.992       .  S
C425        C426   1.400       .  A
C425        C430   1.397       .  A
C425        H435   1.083       .  S
C426        C431   1.482       .  S
C426        C427   1.409       .  A
C427        C428   1.400       .  A
C427        O432   1.372       .  S
C428        C429   1.406       .  A
C428        H433   1.083       .  S
C429        C430   1.415       .  A
C430        O434   1.372       .  S
C431        C436   1.408       .  A
C431        C440   1.401       .  A
O432        H448   0.992       .  S
O434        H445   0.992       .  S
C436        C437   1.400       .  A
C436        O441   1.372       .  S
C437        C438   1.406       .  A
C437        H442   1.083       .  S
C438        C439   1.414       .  A
C439        C440   1.397       .  A
C439        O443   1.371       .  S
C440        H444   1.084       .  S
O441        H446   0.991       .  S
O443        H447   0.992       .  S
C449        C450   1.401       .  A
C449        C454   1.399       .  A
C449        H459   1.084       .  S
C450        C455   1.482       .  S
C450        C451   1.409       .  A
C451        C452   1.398       .  A
C451        O456   1.372       .  S
C452        C453   1.406       .  A
C452        H457   1.083       .  S
C453        C454   1.414       .  A
C454        O458   1.371       .  S
C455        C460   1.409       .  A
C455        C464   1.401       .  A
O456        H472   0.992       .  S
O458        H469   0.992       .  S
C460        C461   1.398       .  A
C460        O465   1.372       .  S
C461        C462   1.406       .  A
C461        H466   1.083       .  S
C462        C463   1.413       .  A
C463        C464   1.396       .  A
C463        O467   1.371       .  S
C464        H468   1.084       .  S
O465        H470   0.992       .  S
O467        H471   0.992       .  S
C473        C474   1.401       .  A
C473        C478   1.396       .  A
C473        H483   1.084       .  S
C474        C479   1.475       .  S
C474        C475   1.406       .  A
C475        C476   1.399       .  A
C475        O480   1.372       .  S
C476        C477   1.407       .  A
C476        H481   1.083       .  S
C477        C478   1.413       .  A
C478        O482   1.372       .  S
C479        C484   1.406       .  A
C479        C488   1.401       .  A
O480        H496   0.992       .  S
O482        H493   0.991       .  S
C484        C485   1.397       .  A
C484        O489   1.372       .  S
C485        C486   1.408       .  A
C485        H490   1.083       .  S
C486        C487   1.411       .  A
C487        C488   1.395       .  A
C487        O491   1.371       .  S
C488        H492   1.084       .  S
O489        H494   0.992       .  S
O491        H495   0.992       .  S
C497        C498   1.401   1_545  A
C497        C502   1.398       .  A
C497        H507   1.084       .  S
C498        C503   1.479       .  S
C498        C499   1.408       .  A
C499        C500   1.398       .  A
C499        O504   1.372       .  S
C500        C501   1.405       .  A
C500        H505   1.083       .  S
C501        C502   1.413   1_565  A
C502        O506   1.371       .  S
C503        C508   1.408   1_565  A
C503        C512   1.400       .  A
O504        H520   0.992       .  S
O506        H517   0.992       .  S
C508        C509   1.401       .  A
C508        O513   1.372       .  S
C509        C510   1.405   1_545  A
C509        H514   1.083       .  S
C510        C511   1.412       .  A
C511        C512   1.397       .  A
C511        O515   1.372       .  S
C512        H516   1.084       .  S
O513        H518   0.991       .  S
O515        H519   0.992       .  S
C521        C522   1.405       .  A
C521        C526   1.400       .  A
C521        H531   1.083       .  S
C522        C527   1.488       .  S
C522        C523   1.412       .  A
C523        C524   1.402       .  A
C523        O528   1.372       .  S
C524        C525   1.403       .  A
C524        H529   1.084       .  S
C525        C526   1.408       .  A
C526        O530   1.372       .  S
C527        C532   1.410       .  A
C527        C536   1.404       .  A
O528        H544   0.992       .  S
O530        H541   0.992       .  S
C532        C533   1.403       .  A
C532        O537   1.372       .  S
C533        C534   1.405       .  A
C533        H538   1.083       .  S
C534        C535   1.412       .  A
C535        C536   1.400       .  A
C535        O539   1.372       .  S
C536        H540   1.084       .  S
O537        H542   0.992       .  S
O539        H543   0.992       .  S
C545        C546   1.405       .  A
C545        C550   1.401       .  A
C545        H555   1.084       .  S
C546        C551   1.491       .  S
C546        C547   1.411       .  A
C547        C548   1.402       .  A
C547        O552   1.373       .  S
C548        C549   1.405       .  A
C548        H553   1.083       .  S
C549        C550   1.412       .  A
C550        O554   1.371       .  S
C551        C556   1.412       .  A
C551        C560   1.406       .  A
O552        H568   0.993       .  S
O554        H565   0.992       .  S
C556        C557   1.401       .  A
C556        O561   1.371       .  S
C557        C558   1.403       .  A
C557        H562   1.084       .  S
C558        C559   1.408       .  A
C559        C560   1.401       .  A
C559        O563   1.372       .  S
C560        H564   1.083       .  S
O561        H566   0.992       .  S
O563        H567   0.992       .  S
C569        C570   1.402       .  A
C569        C574   1.400       .  A
C569        H579   1.083       .  S
C570        C575   1.484       .  S
C570        C571   1.408       .  A
C571        C572   1.398       .  A
C571        O576   1.372       .  S
C572        C573   1.406       .  A
C572        H577   1.083       .  S
C573        C574   1.416       .  A
C574        O578   1.372       .  S
C575        C580   1.408       .  A
C575        C584   1.403       .  A
O576        H592   0.992       .  S
O578        H589   0.992       .  S
C580        C581   1.401       .  A
C580        O585   1.372       .  S
C581        C582   1.407       .  A
C581        H586   1.083       .  S
C582        C583   1.412       .  A
C583        C584   1.398       .  A
C583        O587   1.371       .  S
C584        H588   1.084       .  S
O585        H590   0.992       .  S
O587        H591   0.992       .  S
C593        C594   1.406       .  A
C593        C598   1.400       .  A
C593        H603   1.083       .  S
C594        C599   1.488       .  S
C594        C595   1.410       .  A
C595        C596   1.399       .  A
C595        O600   1.372       .  S
C596        C597   1.404       .  A
C596        H601   1.084       .  S
C597        C598   1.408       .  A
C598        O602   1.372       .  S
C599        C604   1.409       .  A
C599        C608   1.407       .  A
O600        H616   0.992       .  S
O602        H613   0.992       .  S
C604        C605   1.398       .  A
C604        O609   1.372       .  S
C605        C606   1.404       .  A
C605        H610   1.084       .  S
C606        C607   1.410       .  A
C607        C608   1.402       .  A
C607        O611   1.371       .  S
C608        H612   1.083       .  S
O609        H614   0.992       .  S
O611        H615   0.992       .  S
C617        C618   1.405       .  A
C617        C622   1.402       .  A
C617        H627   1.084       .  S
C618        C623   1.487   1_655  S
C618        C619   1.409   1_655  A
C619        C620   1.400       .  A
C619        O624   1.372       .  S
C620        C621   1.406   1_455  A
C620        H625   1.084       .  S
C621        C622   1.411       .  A
C622        O626   1.372       .  S
C623        C628   1.408   1_455  A
C623        C632   1.404       .  A
O624        H640   0.991       .  S
O626        H637   0.992       .  S
C628        C629   1.400       .  A
C628        O633   1.372       .  S
C629        C630   1.408   1_655  A
C629        H634   1.083       .  S
C630        C631   1.414       .  A
C631        C632   1.402       .  A
C631        O635   1.371       .  S
C632        H636   1.084       .  S
O633        H638   0.992       .  S
O635        H639   0.992       .  S
C641        C642   1.404       .  A
C641        C646   1.398       .  A
C641        H651   1.083       .  S
C642        C647   1.480       .  S
C642        C643   1.409       .  A
C643        C644   1.397       .  A
C643        O648   1.372       .  S
C644        C645   1.403       .  A
C644        H649   1.084       .  S
C645        C646   1.409       .  A
C646        O650   1.372       .  S
C647        C652   1.408       .  A
C647        C656   1.404       .  A
O648        H664   0.992       .  S
O650        H661   0.992       .  S
C652        C653   1.399       .  A
C652        O657   1.372       .  S
C653        C654   1.403       .  A
C653        H658   1.084       .  S
C654        C655   1.408       .  A
C655        C656   1.396       .  A
C655        O659   1.372       .  S
C656        H660   1.084       .  S
O657        H662   0.992       .  S
O659        H663   0.992       .  S
C665        C666   1.404       .  A
C665        C670   1.396       .  A
C665        H675   1.084       .  S
C666        C671   1.484       .  S
C666        C667   1.410       .  A
C667        C668   1.401       .  A
C667        O672   1.373       .  S
C668        C669   1.404       .  A
C668        H673   1.084       .  S
C669        C670   1.410       .  A
C670        O674   1.371       .  S
C671        C676   1.411       .  A
C671        C680   1.405       .  A
O672        H688   0.993       .  S
O674        H685   0.992       .  S
C676        C677   1.399       .  A
C676        O681   1.371       .  S
C677        C678   1.403       .  A
C677        H682   1.084       .  S
C678        C679   1.407       .  A
C679        C680   1.397       .  A
C679        O683   1.372       .  S
C680        H684   1.084       .  S
O681        H686   0.992       .  S
O683        H687   0.992       .  S
C689        C690   1.402       .  A
C689        C694   1.398       .  A
C689        H699   1.083       .  S
C690        C695   1.482   1_554  S
C690        C691   1.408       .  A
C691        C692   1.398       .  A
C691        O696   1.372       .  S
C692        C693   1.408       .  A
C692        H697   1.083       .  S
C693        C694   1.415       .  A
C694        O698   1.371       .  S
C695        C700   1.409       .  A
C695        C704   1.405       .  A
O696        H712   0.992       .  S
O698        H709   0.992       .  S
C700        C701   1.398       .  A
C700        O705   1.372       .  S
C701        C702   1.403       .  A
C701        H706   1.084       .  S
C702        C703   1.408       .  A
C703        C704   1.400       .  A
C703        O707   1.372       .  S
C704        H708   1.083       .  S
O705        H710   0.991       .  S
O707        H711   0.992       .  S
C713        C714   1.407       .  A
C713        C718   1.404       .  A
C713        H723   1.083       .  S
C714        C719   1.492       .  S
C714        C715   1.411       .  A
C715        C716   1.397       .  A
C715        O720   1.372       .  S
C716        C717   1.404       .  A
C716        H721   1.083       .  S
C717        C718   1.412       .  A
C718        O722   1.372       .  S
C719        C724   1.410       .  A
C719        C728   1.404       .  A
O720        H736   0.992       .  S
O722        H733   0.992       .  S
C724        C725   1.404       .  A
C724        O729   1.372       .  S
C725        C726   1.408       .  A
C725        H730   1.083       .  S
C726        C727   1.413       .  A
C727        C728   1.400       .  A
C727        O731   1.371       .  S
C728        H732   1.083       .  S
O729        H734   0.992       .  S
O731        H735   0.992       .  S
C737        C738   1.405       .  A
C737        C742   1.401       .  A
C737        H747   1.083       .  S
C738        C743   1.490       .  S
C738        C739   1.411       .  A
C739        C740   1.399       .  A
C739        O744   1.372       .  S
C740        C741   1.405       .  A
C740        H745   1.083       .  S
C741        C742   1.413       .  A
C742        O746   1.372       .  S
C743        C748   1.412       .  A
C743        C752   1.406       .  A
O744        H760   0.992       .  S
O746        H757   0.992       .  S
C748        C749   1.403       .  A
C748        O753   1.372       .  S
C749        C750   1.402       .  A
C749        H754   1.084       .  S
C750        C751   1.407       .  A
C751        C752   1.400       .  A
C751        O755   1.372       .  S
C752        H756   1.083       .  S
O753        H758   0.992       .  S
O755        H759   0.992       .  S
C761        C762   1.406       .  A
C761        C766   1.400       .  A
C761        H771   1.083       .  S
C762        C767   1.489       .  S
C762        C763   1.411       .  A
C763        C764   1.398       .  A
C763        O768   1.371       .  S
C764        C765   1.403       .  A
C764        H769   1.084       .  S
C765        C766   1.409       .  A
C766        O770   1.372       .  S
C767        C772   1.411       .  A
C767        C776   1.406       .  A
O768        H784   0.992       .  S
O770        H781   0.992       .  S
C772        C773   1.398       .  A
C772        O777   1.372       .  S
C773        C774   1.404       .  A
C773        H778   1.084       .  S
C774        C775   1.410       .  A
C775        C776   1.400       .  A
C775        O779   1.372       .  S
C776        H780   1.083       .  S
O777        H782   0.992       .  S
O779        H783   0.992       .  S
C785        C786   1.402       .  A
C785        C790   1.400       .  A
C785        H795   1.084       .  S
C786        C791   1.481       .  S
C786        C787   1.408       .  A
C787        C788   1.399       .  A
C787        O792   1.372       .  S
C788        C789   1.405       .  A
C788        H793   1.083       .  S
C789        C790   1.412       .  A
C790        O794   1.372       .  S
C791        C796   1.406       .  A
C791        C800   1.401       .  A
O792        H808   0.992       .  S
O794        H805   0.992       .  S
C796        C797   1.399       .  A
C796        O801   1.372       .  S
C797        C798   1.408       .  A
C797        H802   1.083       .  S
C798        C799   1.415       .  A
C799        C800   1.398       .  A
C799        O803   1.371       .  S
C800        H804   1.084       .  S
O801        H806   0.992       .  S
O803        H807   0.992       .  S
C809        C810   1.404       .  A
C809        C814   1.400       .  A
C809        H819   1.084       .  S
C810        C815   1.484   1_556  S
C810        C811   1.408       .  A
C811        C812   1.399       .  A
C811        O816   1.372       .  S
C812        C813   1.406       .  A
C812        H817   1.083       .  S
C813        C814   1.412       .  A
C814        O818   1.372       .  S
C815        C820   1.409       .  A
C815        C824   1.404       .  A
O816        H832   0.992       .  S
O818        H829   0.992       .  S
C820        C821   1.399       .  A
C820        O825   1.372       .  S
C821        C822   1.406       .  A
C821        H826   1.084       .  S
C822        C823   1.412       .  A
C823        C824   1.399       .  A
C823        O827   1.372       .  S
C824        H828   1.083       .  S
O825        H830   0.992       .  S
O827        H831   0.992       .  S
C833        C834   1.403       .  A
C833        C838   1.396       .  A
C833        H843   1.084       .  S
C834        C839   1.482       .  S
C834        C835   1.409       .  A
C835        C836   1.403       .  A
C835        O840   1.373       .  S
C836        C837   1.405       .  A
C836        H841   1.084       .  S
C837        C838   1.409       .  A
C838        O842   1.372       .  S
C839        C844   1.408       .  A
C839        C848   1.402       .  A
O840        H856   0.992       .  S
O842        H853   0.992       .  S
C844        C845   1.399       .  A
C844        O849   1.371       .  S
C845        C846   1.409       .  A
C845        H850   1.083       .  S
C846        C847   1.414       .  A
C847        C848   1.397       .  A
C847        O851   1.370       .  S
C848        H852   1.084       .  S
O849        H854   0.992       .  S
O851        H855   0.992       .  S
C857        C858   1.404       .  A
C857        C862   1.397       .  A
C857        H867   1.084       .  S
C858        C863   1.482       .  S
C858        C859   1.409       .  A
C859        C860   1.402       .  A
C859        O864   1.373       .  S
C860        C861   1.403       .  A
C860        H865   1.084       .  S
C861        C862   1.408       .  A
C862        O866   1.372       .  S
C863        C868   1.409       .  A
C863        C872   1.403       .  A
O864        H880   0.993       .  S
O866        H877   0.992       .  S
C868        C869   1.400       .  A
C868        O873   1.371       .  S
C869        C870   1.405       .  A
C869        H874   1.084       .  S
C870        C871   1.410       .  A
C871        C872   1.398       .  A
C871        O875   1.372       .  S
C872        H876   1.084       .  S
O873        H878   0.992       .  S
O875        H879   0.992       .  S
C881        C882   1.402       .  A
C881        C886   1.400       .  A
C881        H891   1.084       .  S
C882        C887   1.478       .  S
C882        C883   1.407       .  A
C883        C884   1.400       .  A
C883        O888   1.372       .  S
C884        C885   1.405       .  A
C884        H889   1.084       .  S
C885        C886   1.411       .  A
C886        O890   1.372       .  S
C887        C892   1.404       .  A
C887        C896   1.400       .  A
O888        H904   0.992       .  S
O890        H901   0.992       .  S
C892        C893   1.399       .  A
C892        O897   1.372       .  S
C893        C894   1.409       .  A
C893        H898   1.083       .  S
C894        C895   1.416       .  A
C895        C896   1.401       .  A
C895        O899   1.371       .  S
C896        H900   1.084       .  S
O897        H902   0.991       .  S
O899        H903   0.992       .  S
C905        C906   1.405       .  A
C905        C910   1.400       .  A
C905        H915   1.083       .  S
C906        C911   1.487       .  S
C906        C907   1.411       .  A
C907        C908   1.398       .  A
C907        O912   1.372       .  S
C908        C909   1.403       .  A
C908        H913   1.084       .  S
C909        C910   1.410       .  A
C910        O914   1.372       .  S
C911        C916   1.411       .  A
C911        C920   1.406       .  A
O912        H928   0.992       .  S
O914        H925   0.992       .  S
C916        C917   1.400       .  A
C916        O921   1.371       .  S
C917        C918   1.404       .  A
C917        H922   1.084       .  S
C918        C919   1.408       .  A
C919        C920   1.398       .  A
C919        O923   1.372       .  S
C920        H924   1.083       .  S
O921        H926   0.992       .  S
O923        H927   0.992       .  S
C929        C930   1.400       .  A
C929        C934   1.396       .  A
C929        H939   1.084       .  S
C930        C935   1.474       .  S
C930        C931   1.405       .  A
C931        C932   1.397       .  A
C931        O936   1.372       .  S
C932        C933   1.409       .  A
C932        H937   1.083       .  S
C933        C934   1.416       .  A
C934        O938   1.371       .  S
C935        C940   1.406       .  A
C935        C944   1.401       .  A
O936        H952   0.992       .  S
O938        H949   0.992       .  S
C940        C941   1.397       .  A
C940        O945   1.372       .  S
C941        C942   1.404       .  A
C941        H946   1.084       .  S
C942        C943   1.411       .  A
C943        C944   1.397       .  A
C943        O947   1.372       .  S
C944        H948   1.084       .  S
O945        H950   0.991       .  S
O947        H951   0.992       .  S
C953        C954   1.403       .  A
C953        C958   1.397       .  A
C953        H963   1.084       .  S
C954        C959   1.481       .  S
C954        C955   1.408   1_655  A
C955        C956   1.399       .  A
C955        O960   1.372       .  S
C956        C957   1.405   1_455  A
C956        H961   1.084       .  S
C957        C958   1.411       .  A
C958        O962   1.372       .  S
C959        C964   1.408       .  A
C959        C968   1.403   1_655  A
O960        H976   0.992       .  S
O962        H973   0.992       .  S
C964        C965   1.397       .  A
C964        O969   1.372       .  S
C965        C966   1.405       .  A
C965        H970   1.083       .  S
C966        C967   1.412   1_655  A
C967        C968   1.400       .  A
C967        O971   1.371       .  S
C968        H972   1.084       .  S
O969        H974   0.992       .  S
O971        H975   0.992       .  S
C977        C978   1.406       .  A
C977        C982   1.400       .  A
C977        H987   1.083       .  S
C978        C983   1.487       .  S
C978        C979   1.410       .  A
C979        C980   1.398       .  A
C979        O984   1.372       .  S
C980        C981   1.405       .  A
C980        H985   1.084       .  S
C981        C982   1.410       .  A
C982        O986   1.372       .  S
C983        C988   1.411       .  A
C983        C992   1.406       .  A
O984       H1000   0.992       .  S
O986        H997   0.992       .  S
C988        C989   1.401       .  A
C988        O993   1.373       .  S
C989        C990   1.403       .  A
C989        H994   1.084       .  S
C990        C991   1.408       .  A
C991        C992   1.400       .  A
C991        O995   1.372       .  S
C992        H996   1.083       .  S
O993        H998   0.992       .  S
O995        H999   0.992       .  S
C1001      C1002   1.403       .  A
C1001      C1006   1.397       .  A
C1001      H1011   1.084       .  S
C1002      C1007   1.480       .  S
C1002      C1003   1.409       .  A
C1003      C1004   1.401       .  A
C1003      O1008   1.373       .  S
C1004      C1005   1.403       .  A
C1004      H1009   1.084       .  S
C1005      C1006   1.409       .  A
C1006      O1010   1.372       .  S
C1007      C1012   1.409       .  A
C1007      C1016   1.403       .  A
O1008      H1024   0.993       .  S
O1010      H1021   0.992       .  S
C1012      C1013   1.399       .  A
C1012      O1017   1.371       .  S
C1013      C1014   1.404       .  A
C1013      H1018   1.084       .  S
C1014      C1015   1.409       .  A
C1015      C1016   1.397       .  A
C1015      O1019   1.372       .  S
C1016      H1020   1.084       .  S
O1017      H1022   0.992       .  S
O1019      H1023   0.992       .  S
C1025      C1026   1.405       .  A
C1025      C1030   1.400       .  A
C1025      H1035   1.083       .  S
C1026      C1031   1.480       .  S
C1026      C1027   1.408       .  A
C1027      C1028   1.394       .  A
C1027      O1032   1.372       .  S
C1028      C1029   1.404       .  A
C1028      H1033   1.084       .  S
C1029      C1030   1.410       .  A
C1030      O1034   1.372       .  S
C1031      C1036   1.409       .  A
C1031      C1040   1.405       .  A
O1032      H1048   0.992       .  S
O1034      H1045   0.992       .  S
C1036      C1037   1.399       .  A
C1036      O1041   1.372       .  S
C1037      C1038   1.402       .  A
C1037      H1042   1.084       .  S
C1038      C1039   1.406       .  A
C1039      C1040   1.396       .  A
C1039      O1043   1.372       .  S
C1040      H1044   1.083       .  S
O1041      H1046   0.991       .  S
O1043      H1047   0.992       .  S
C1049      C1050   1.403       .  A
C1049      C1054   1.397       .  A
C1049      H1059   1.083       .  S
C1050      C1055   1.484   1_554  S
C1050      C1051   1.409       .  A
C1051      C1052   1.399       .  A
C1051      O1056   1.372       .  S
C1052      C1053   1.407       .  A
C1052      H1057   1.083       .  S
C1053      C1054   1.411       .  A
C1054      O1058   1.371       .  S
C1055      C1060   1.409       .  A
C1055      C1064   1.404       .  A
O1056      H1072   0.992       .  S
O1058      H1069   0.992       .  S
C1060      C1061   1.397       .  A
C1060      O1065   1.373       .  S
C1061      C1062   1.403       .  A
C1061      H1066   1.083       .  S
C1062      C1063   1.412       .  A
C1063      C1064   1.400       .  A
C1063      O1067   1.372       .  S
C1064      H1068   1.083       .  S
O1065      H1070   0.992       .  S
O1067      H1071   0.992       .  S
C1073      C1074   1.399       .  A
C1073      C1078   1.395       .  A
C1073      H1083   1.084       .  S
C1074      C1079   1.476       .  S
C1074      C1075   1.406       .  A
C1075      C1076   1.399       .  A
C1075      O1080   1.372       .  S
C1076      C1077   1.408       .  A
C1076      H1081   1.083       .  S
C1077      C1078   1.416       .  A
C1078      O1082   1.372       .  S
C1079      C1084   1.409       .  A
C1079      C1088   1.402       .  A
O1080      H1096   0.992       .  S
O1082      H1093   0.992       .  S
C1084      C1085   1.395       .  A
C1084      O1089   1.372       .  S
C1085      C1086   1.401       .  A
C1085      H1090   1.084       .  S
C1086      C1087   1.410       .  A
C1087      C1088   1.399       .  A
C1087      O1091   1.372       .  S
C1088      H1092   1.084       .  S
O1089      H1094   0.992       .  S
O1091      H1095   0.992       .  S
C1097      C1098   1.403       .  A
C1097      C1102   1.398       .  A
C1097      H1107   1.084       .  S
C1098      C1103   1.479       .  S
C1098      C1099   1.410       .  A
C1099      C1100   1.399       .  A
C1099      O1104   1.372       .  S
C1100      C1101   1.402       .  A
C1100      H1105   1.084       .  S
C1101      C1102   1.408       .  A
C1102      O1106   1.372       .  S
C1103      C1108   1.409       .  A
C1103      C1112   1.402       .  A
O1104      H1120   0.992       .  S
O1106      H1117   0.992       .  S
C1108      C1109   1.399       .  A
C1108      O1113   1.372       .  S
C1109      C1110   1.404       .  A
C1109      H1114   1.084       .  S
C1110      C1111   1.411       .  A
C1111      C1112   1.397       .  A
C1111      O1115   1.372       .  S
C1112      H1116   1.084       .  S
O1113      H1118   0.992       .  S
O1115      H1119   0.992       .  S
C1121      C1122   1.402       .  A
C1121      C1126   1.398       .  A
C1121      H1131   1.084       .  S
C1122      C1127   1.476       .  S
C1122      C1123   1.406       .  A
C1123      C1124   1.398       .  A
C1123      O1128   1.372       .  S
C1124      C1125   1.406       .  A
C1124      H1129   1.083       .  S
C1125      C1126   1.411       .  A
C1126      O1130   1.372       .  S
C1127      C1132   1.405       .  A
C1127      C1136   1.401       .  A
O1128      H1144   0.992       .  S
O1130      H1141   0.992       .  S
C1132      C1133   1.396       .  A
C1132      O1137   1.372       .  S
C1133      C1134   1.408       .  A
C1133      H1138   1.083       .  S
C1134      C1135   1.414       .  A
C1135      C1136   1.399       .  A
C1135      O1139   1.371       .  S
C1136      H1140   1.084       .  S
O1137      H1142   0.992       .  S
O1139      H1143   0.992       .  S
C1145      C1146   1.403       .  A
C1145      C1150   1.398       .  A
C1145      H1155   1.084       .  S
C1146      C1151   1.481       .  S
C1146      C1147   1.407       .  A
C1147      C1148   1.399       .  A
C1147      O1152   1.373       .  S
C1148      C1149   1.407       .  A
C1148      H1153   1.083       .  S
C1149      C1150   1.412       .  A
C1150      O1154   1.371       .  S
C1151      C1156   1.409       .  A
C1151      C1160   1.403       .  A
O1152      H1168   0.992       .  S
O1154      H1165   0.992       .  S
C1156      C1157   1.398       .  A
C1156      O1161   1.371       .  S
C1157      C1158   1.405       .  A
C1157      H1162   1.084       .  S
C1158      C1159   1.409       .  A
C1159      C1160   1.397       .  A
C1159      O1163   1.372       .  S
C1160      H1164   1.084       .  S
O1161      H1166   0.992       .  S
O1163      H1167   0.992       .  S
