geometry optimzed in LAMMPS
_audit_creation_date              2020-12-01 
_audit_creation_method            'lammps2cif' 
_symmetry_space_group_name_H-M    'P1' 
_symmetry_Int_Tables_number       1 
_symmetry_cell_setting            triclinic 
loop_ 
_symmetry_equiv_pos_as_xyz 
  x,y,z 
_cell_length_a                    33.84929317 
_cell_length_b                    28.68467118495043 
_cell_length_c                    34.70479388054018 
_cell_angle_alpha                 83.53600068235232 
_cell_angle_beta                  110.02749944080138 
_cell_angle_gamma                 94.55831317816931 
loop_ 
_atom_site_label 
_atom_site_type_symbol 
_atom_site_fract_x 
_atom_site_fract_y 
_atom_site_fract_z 
_atom_site_charge 
O1          O  0.98551986  0.95295936  0.40418471    -0.80900
O2          O  0.96665022  0.96601903  0.57744078    -0.65600
O3          O  0.97295454  0.99335315  0.46932207    -1.12200
C4          C  0.11896321  0.97559951  0.54208609     1.06000
O5          O  0.01940965  0.01670871  0.60176250    -0.78800
O6          O  0.07315903  0.05556909  0.56314169    -0.66400
Ni7        Ni  0.94056889  0.95547172  0.42659785     1.34900
C8          C  0.06197275  0.07611524  0.52704426     0.84700
O9          O  0.90984447  0.98812362  0.50326325    -0.79300
O10         O  0.89160820  0.95585999  0.44314332    -0.89600
C11         C  0.98801017  0.99171125  0.60550496     0.84300
O12         O  0.95464516  0.89545427  0.45706719    -0.67800
O13         O  0.11080932  0.97376475  0.57550348    -0.87100
C14         C  0.95199314  0.88228114  0.49238079     0.85100
C15         C  0.88257119  0.97099107  0.47221781     1.06700
H16         H  0.03084847  0.93465836  0.54342774     0.38500
O17         O  0.02683127  0.96807373  0.53884664    -1.09800
O18         O  0.04075263  0.05470705  0.49556932    -0.66400
Ni19       Ni  0.03230538  0.98854115  0.48683031     1.26300
O20         O  0.95540358  0.91153367  0.51839483    -0.66600
O21         O  0.09182450  0.98248788  0.50614449    -0.78900
C22         C  0.01449638  0.98353074  0.40242629     0.84500
O23         O  0.03409329  0.00707893  0.43272923    -0.66100
Ni24       Ni  0.06385137  0.99418319  0.58680201     1.27400
Ni25       Ni  0.96834279  0.97813532  0.52253657     1.26100
H26         H  0.96574946  0.02563939  0.46032874     0.39100
O27         O  0.44210026  0.00140417  0.38804314    -0.80900
O28         O  0.48083254  0.98223916  0.58128279    -0.65600
O29         O  0.46970640  0.02293584  0.47036604    -1.12200
C30         C  0.60200885  0.96077497  0.50279577     1.06000
O31         O  0.54845478  0.00244337  0.60797342    -0.78800
O32         O  0.57575687  0.05323410  0.55119530    -0.66400
Ni33       Ni  0.41704036  0.00774645  0.42893645     1.34900
C34         C  0.56933170  0.07235305  0.51487451     0.84700
O35         O  0.42744525  0.03451098  0.52375021    -0.79300
O36         O  0.38399412  0.01410636  0.46317547    -0.89600
C37         C  0.51239752  0.99353701  0.61131242     0.84300
O38         O  0.41982206  0.94182048  0.44487194    -0.67800
O39         O  0.60832574  0.97434557  0.53813114    -0.87100
C40         C  0.42388434  0.92255436  0.48077029     0.85100
C41         C  0.39097112  0.02762586  0.49858019     1.06700
H42         H  0.51835528  0.93823660  0.53038089     0.38500
O43         O  0.52304437  0.97193141  0.52762905    -1.09800
O44         O  0.55138581  0.05018837  0.48314356    -0.66400
Ni45       Ni  0.51817748  0.99177029  0.47194242     1.26300
O46         O  0.44076567  0.94437256  0.51302635    -0.66600
O47         O  0.56620583  0.95991620  0.47483860    -0.78900
C48         C  0.47848993  0.00696549  0.38503757     0.84500
O49         O  0.51156261  0.01043207  0.41602940    -0.66100
Ni50       Ni  0.57478173  0.98814361  0.56981515     1.27400
Ni51       Ni  0.47462932  0.00237722  0.52585491     1.26100
H52         H  0.47457502  0.05660232  0.46810566     0.39100
O53         O  0.22820766  0.46702199  0.39957844    -0.80900
O54         O  0.21550745  0.47796390  0.57442799    -0.65600
O55         O  0.21967626  0.51043045  0.46563834    -1.12200
C56         C  0.36578376  0.49096650  0.53305059     1.06000
O57         O  0.26907957  0.52655683  0.59992626    -0.78800
O58         O  0.31578407  0.57186599  0.55752255    -0.66400
Ni59       Ni  0.18416456  0.47685980  0.42090709     1.34900
C60         C  0.30773781  0.59105429  0.52112737     0.84700
O61         O  0.15768306  0.50491104  0.50176933    -0.79300
O62         O  0.13628714  0.48377501  0.43695204    -0.89600
C63         C  0.23927281  0.49953954  0.60450344     0.84300
O64         O  0.19035462  0.41464928  0.44796878    -0.67800
O65         O  0.35967931  0.49434255  0.56686112    -0.87100
C66         C  0.19153054  0.40060379  0.48430793     0.85100
C67         C  0.12910049  0.49431946  0.46855602     1.06700
H68         H  0.27798052  0.44885423  0.53866048     0.38500
O69         O  0.27435343  0.48233541  0.53389518    -1.09800
O70         O  0.29061472  0.56835472  0.48948100    -0.66400
Ni71       Ni  0.27837292  0.50213901  0.48094121     1.26300
O72         O  0.20107306  0.42785098  0.51292747    -0.66600
O73         O  0.33705750  0.49239240  0.49787479    -0.78900
C74         C  0.25838865  0.49495281  0.39688319     0.84500
O75         O  0.27889518  0.51947106  0.42617710    -0.66100
Ni76       Ni  0.31261985  0.50915103  0.58119990     1.27400
Ni77       Ni  0.21602984  0.49349359  0.51922589     1.26100
H78         H  0.21415979  0.54337036  0.45839275     0.39100
O79         O  0.70746808  0.48047669  0.39113405    -0.80900
O80         O  0.72243752  0.48017428  0.57995040    -0.69600
O81         O  0.72554435  0.50722591  0.47103211    -1.12200
C82         C  0.85797048  0.44802227  0.51950825     1.06000
O83         O  0.79108124  0.48543639  0.61593264    -0.78800
O84         O  0.82028918  0.54092516  0.55979302    -0.66400
Ni85       Ni  0.67654392  0.48699898  0.42759166     1.34900
C86         C  0.82166624  0.55664284  0.52440230     0.84700
O87         O  0.67494260  0.52740423  0.51322552    -0.79300
O88         O  0.63794250  0.49390151  0.45646598    -0.89600
C89         C  0.75263695  0.48247040  0.61362288     0.84300
O90         O  0.68358999  0.42281230  0.44921002    -0.67800
O91         O  0.86071484  0.46655206  0.55195850    -0.87100
C92         C  0.68176556  0.40739049  0.48445026     0.85100
C93         C  0.64018053  0.51533267  0.48733112     1.06700
H94         H  0.76725720  0.42560848  0.53999978     0.38500
O95         O  0.77294548  0.45897075  0.53568418    -1.09800
O96         O  0.80889732  0.53194589  0.49355415    -0.66400
Ni97       Ni  0.77491081  0.47353423  0.48135862     1.26300
O98         O  0.69078999  0.43380436  0.51392320    -0.66600
O99         O  0.82301447  0.43833947  0.49273336    -0.78900
C100        C  0.74568850  0.48606292  0.39283277     0.84500
O101        O  0.77585901  0.48770784  0.42664354    -0.66100
Ni102      Ni  0.82226017  0.47614995  0.58016876     1.27400
Ni103      Ni  0.72360018  0.49296488  0.52528448     1.26100
H104        H  0.73064470  0.54019104  0.46617714     0.39100
O105        O  0.94749819  0.00341000  0.89935144    -0.80900
O106        O  0.99298723  0.02558633  0.08491745    -0.65600
O107        O  0.99559917  0.03623377  0.97511258    -1.12200
C108        C  0.05309038  0.88473199  0.01588704     1.06000
O109        O  0.05798647  0.00271278  0.10815190    -0.78800
O110        O  0.10107806  0.98049686  0.06052446    -0.66400
Ni111      Ni  0.94862284  0.05671017  0.92905592     1.34900
C112        C  0.10331721  0.99637749  0.02572569     0.84700
O113        O  0.97442527  0.09492249  0.02344827    -0.79300
O114        O  0.94614222  0.11188035  0.95469035    -0.89600
C115        C  0.02631724  0.01631439  0.11493903     0.84300
O116        O  0.90434520  0.02743486  0.94678577    -0.67800
O117        O  0.06138984  0.89469927  0.05288620    -0.87100
C118        C  0.90237276  0.01248594  0.98194211     0.85100
C119        C  0.95524910  0.12199157  0.99174111     1.06700
H120        H  0.98715229  0.94770699  0.03272012     0.38500
O121        O  0.01027373  0.96959494  0.03235616    -1.09800
O122        O  0.07132416  0.99776203  0.99293923    -0.66400
Ni123      Ni  0.01369804  0.97394542  0.97835282     1.26300
O124        O  0.93450000  0.01000820  0.01459138    -0.66600
O125        O  0.03310347  0.91137850  0.98414845    -0.78900
C126        C  0.97910487  0.98963451  0.89262724     0.84500
O127        O  0.01287121  0.98089525  0.92245004    -0.66100
Ni128      Ni  0.05758888  0.94964302  0.07838025     1.27400
Ni129      Ni  0.99256918  0.03215650  0.02914069     1.26100
H130        H  0.01864292  0.05823488  0.97473056     0.39100
O131        O  0.54030356  0.97316734  0.10856632    -0.80900
O132        O  0.51099743  0.97809072  0.91940618    -0.65600
O133        O  0.53402923  0.01007359  0.02834228    -1.12200
C134        C  0.38468671  0.98476665  0.99325396     1.06000
O135        O  0.45648420  0.02311324  0.89593881    -0.78800
O136        O  0.41882595  0.06154485  0.94190214    -0.66400
Ni137      Ni  0.57403609  0.97586094  0.07309398     1.34900
C138        C  0.43753392  0.08423066  0.97292961     0.84700
O139        O  0.58155296  0.00635694  0.97777777    -0.79300
O140        O  0.61309688  0.97695175  0.04314801    -0.89600
C141        C  0.48399112  0.00031297  0.88961435     0.84300
O142        O  0.55280156  0.91432597  0.05759828    -0.67800
O143        O  0.38324202  0.97773108  0.95709085    -0.87100
C144        C  0.54585698  0.89965226  0.02257332     0.85100
C145        C  0.61395756  0.99197812  0.00731943     1.06700
H146        H  0.46373120  0.94516951  0.97835716     0.38500
O147        O  0.46799394  0.97884409  0.97452828    -1.09800
O148        O  0.46687515  0.06695869  0.00418970    -0.66400
Ni149      Ni  0.47672647  0.00209640  0.02578745     1.26300
O150        O  0.53718960  0.92744759  0.98988109    -0.66600
O151        O  0.41872105  0.99439351  0.02213569    -0.78900
C152        C  0.51371683  0.00125078  0.11040571     0.84500
O153        O  0.48935244  0.02302658  0.07845252    -0.66100
Ni154      Ni  0.42165937  0.99952414  0.92823396     1.27400
Ni155      Ni  0.52422186  0.99271535  0.97460834     1.26100
H156        H  0.54273975  0.04295932  0.02909975     0.39100
O157        O  0.18659966  0.47958641  0.89819601    -0.80900
O158        O  0.23806962  0.50357581  0.08298977    -0.65600
O159        O  0.23696280  0.51475673  0.97250431    -1.12200
C160        C  0.30526451  0.37025691  0.01127358     1.06000
O161        O  0.30507499  0.48583721  0.10642703    -0.78800
O162        O  0.34821435  0.47490678  0.05314891    -0.66400
Ni163      Ni  0.18839663  0.53374055  0.92757541     1.34900
C164        C  0.34875460  0.48110608  0.01641315     0.84700
O165        O  0.21403826  0.57229055  0.02136923    -0.79300
O166        O  0.18702617  0.58969591  0.95266224    -0.89600
C167        C  0.27251356  0.49854234  0.11256776     0.84300
O168        O  0.14426811  0.50724376  0.94775150    -0.67800
O169        O  0.31862722  0.38447147  0.04734889    -0.87100
C170        C  0.14224553  0.49477016  0.98344450     0.85100
C171        C  0.19441273  0.59920266  0.98968855     1.06700
H172        H  0.23634990  0.42561965  0.03387798     0.38500
O173        O  0.25712462  0.44951329  0.03080211    -1.09800
O174        O  0.31532238  0.47627438  0.98532283    -0.66400
Ni175      Ni  0.25702402  0.45314531  0.97548749     1.26300
O176        O  0.17581764  0.48669977  0.01460852    -0.66600
O177        O  0.27742051  0.39124047  0.98073657    -0.78900
C178        C  0.21797293  0.46750661  0.88984767     0.84500
O179        O  0.25239027  0.45927008  0.91884133    -0.66100
Ni180      Ni  0.30940230  0.43630998  0.07415122     1.27400
Ni181      Ni  0.23496107  0.51042224  0.02689213     1.26100
H182        H  0.25938175  0.53739853  0.97150628     0.39100
O183        O  0.68719233  0.50291592  0.89441962    -0.80900
O184        O  0.73609839  0.53289968  0.08188265    -0.65600
O185        O  0.73267459  0.54038859  0.97038165    -1.12200
C186        C  0.80248348  0.39582555  0.01737393     1.06000
O187        O  0.80340257  0.52050374  0.10064116    -0.78800
O188        O  0.84907615  0.49338403  0.05455441    -0.66400
Ni189      Ni  0.68024643  0.55143281  0.92637148     1.34900
C190        C  0.84932618  0.50319784  0.01794322     0.84700
O191        O  0.71004184  0.59861810  0.01867752    -0.79300
O192        O  0.66781652  0.60194164  0.95251523    -0.89600
C193        C  0.77131414  0.52688911  0.11017435     0.84300
O194        O  0.64302889  0.51060784  0.94736666    -0.67800
O195        O  0.81127625  0.40826095  0.05371977    -0.87100
C196        C  0.64139914  0.50506206  0.98374427     0.85100
C197        C  0.68088383  0.61723831  0.98815285     1.06700
H198        H  0.73445790  0.45354233  0.03333617     0.38500
O199        O  0.75533831  0.47754974  0.03075521    -1.09800
O200        O  0.81491821  0.50638689  0.98713391    -0.66400
Ni201      Ni  0.75691264  0.48021062  0.97651389     1.26300
O202        O  0.67419915  0.51166611  0.01521718    -0.66600
O203        O  0.77995211  0.41925923  0.98468665    -0.78900
C204        C  0.72100359  0.49121625  0.89026142     0.84500
O205        O  0.75447801  0.48527333  0.92080739    -0.66100
Ni206      Ni  0.80609216  0.46483809  0.07565356     1.27400
Ni207      Ni  0.73212350  0.53781175  0.02544700     1.26100
H208        H  0.75290629  0.56482300  0.96701554     0.39100
C209        C  0.39068788  0.48857636  0.00949373    -0.12000
C210        C  0.42445038  0.51732279  0.03272819     0.03500
C211        C  0.46458384  0.51808930  0.02820235    -0.12500
C212        C  0.47267916  0.48995580  0.00112710     0.18400
C213        C  0.43908901  0.46069145  0.97845774    -0.09500
C214        C  0.39887423  0.46079346  0.98223650    -0.02500
H215        H  0.48965024  0.54093641  0.04593455     0.04900
C216        C  0.51579819  0.49187719  0.99648714     0.20300
H217        H  0.37421696  0.43716224  0.96500890     0.10100
C218        C  0.55114040  0.47511305  0.02922375    -0.15900
C219        C  0.59183057  0.47706057  0.02573420     0.03100
C220        C  0.59834052  0.49570303  0.98857980    -0.11200
C221        C  0.56258413  0.51198475  0.95586112    -0.01200
C222        C  0.52232222  0.51083593  0.95967784    -0.06400
H223        H  0.54711033  0.46046541  0.05786561     0.06100
H224        H  0.56616427  0.52798872  0.92738936     0.09500
Br225      Br  0.44730617  0.41717811  0.94403306    -0.06100
Br226      Br  0.41693483  0.55748390  0.06999923    -0.03000
Br227      Br  0.63694119  0.45290001  0.07272291    -0.00200
Br228      Br  0.47769253  0.53920071  0.91455196    -0.04600
C229        C  0.09879575  0.49290142  0.98870888    -0.12000
C230        C  0.06354478  0.51583658  0.95899829     0.03500
C231        C  0.02519035  0.51798373  0.96639704    -0.12500
C232        C  0.01916546  0.49801532  0.00294655     0.18400
C233        C  0.05357657  0.47408185  0.03229606    -0.09500
C234        C  0.09259189  0.47240972  0.02538589    -0.02500
H235        H  0.99953426  0.53609795  0.94309938     0.04900
C236        C  0.97598280  0.50080661  0.00761538     0.20300
H237        H  0.11821108  0.45459720  0.04894927     0.10100
C238        C  0.93976883  0.48301518  0.97769303    -0.15900
C239        C  0.89874126  0.48577821  0.97926328     0.03100
C240        C  0.89195167  0.50711618  0.01138940    -0.11200
C241        C  0.92819362  0.52555807  0.04112312    -0.01200
C242        C  0.96927921  0.52343932  0.03907816    -0.06400
H243        H  0.94347024  0.46593610  0.95291722     0.06100
H244        H  0.92460179  0.54189611  0.06631433     0.09500
Br245      Br  0.04832077  0.44028990  0.08132565    -0.06100
Br246      Br  0.06439632  0.54763529  0.90742790    -0.03000
Br247      Br  0.85383675  0.45571892  0.93803741    -0.00200
Br248      Br  0.01475439  0.55460019  0.07886750    -0.04600
C249        C  0.32576820  0.32953596  0.00410485    -0.12000
C250        C  0.33864553  0.29088105  0.03393885     0.03500
C251        C  0.36124219  0.25546194  0.02730238    -0.12500
C252        C  0.37206507  0.25784538  0.99155998     0.18400
C253        C  0.35987220  0.29653286  0.96200866    -0.09500
C254        C  0.33671986  0.33172032  0.96824450    -0.02500
H255        H  0.36970989  0.22531485  0.04981639     0.04900
C256        C  0.39120827  0.21677849  0.98352516     0.20300
H257        H  0.32817422  0.36154918  0.94540249     0.10100
C258        C  0.36466883  0.18456529  0.95803005    -0.15900
C259        C  0.37937107  0.14223379  0.95309605     0.03100
C260        C  0.42224501  0.13144191  0.97357229    -0.11200
C261        C  0.44913754  0.16462934  0.99834601    -0.01200
C262        C  0.43392910  0.20694780  0.00340219    -0.06400
H263        H  0.33160842  0.19154577  0.94322700     0.06100
H264        H  0.48187837  0.15723405  0.01456493     0.09500
Br265      Br  0.37518505  0.30302900  0.91326377    -0.06100
Br266      Br  0.32446043  0.28299092  0.08334416    -0.03000
Br267      Br  0.33710066  0.09942169  0.92153963    -0.00200
Br268      Br  0.47222892  0.25007025  0.03809886    -0.04600
C269        C  0.65828893  0.65596601  0.99491933    -0.12000
C270        C  0.67917210  0.69384649  0.01749052     0.03500
C271        C  0.65576994  0.72869926  0.02371059    -0.12500
C272        C  0.61147972  0.72554821  0.00948829     0.18400
C273        C  0.59067613  0.68667990  0.98815833    -0.09500
C274        C  0.61405062  0.65288083  0.98053467    -0.02500
H275        H  0.67229459  0.75871321  0.03948383     0.04900
C276        C  0.58797032  0.76488853  0.01453691     0.20300
H277        H  0.59751880  0.62309550  0.96435645     0.10100
C278        C  0.56034404  0.78884434  0.97936743    -0.15900
C279        C  0.54214618  0.83004957  0.98180658     0.03100
C280        C  0.55297485  0.84956627  0.02001927    -0.11200
C281        C  0.57777785  0.82327915  0.05570943    -0.01200
C282        C  0.59512355  0.78138456  0.05324594    -0.06400
H283        H  0.55397191  0.77632938  0.94942480     0.06100
H284        H  0.58599841  0.83668506  0.08554658     0.09500
Br285      Br  0.53060548  0.67646475  0.97075817    -0.06100
Br286      Br  0.73940172  0.70062071  0.03917236    -0.03000
Br287      Br  0.50305741  0.85741866  0.93141756    -0.00200
Br288      Br  0.62916428  0.74869351  0.10362395    -0.04600
C289        C  0.86019464  0.00196508  0.98580819    -0.12000
C290        C  0.82594725  0.98280964  0.95445818     0.03500
C291        C  0.78544996  0.98006512  0.95723005    -0.12500
C292        C  0.77814751  0.99712739  0.99036587     0.18400
C293        C  0.81216662  0.01571990  0.02184784    -0.09500
C294        C  0.85275703  0.01754578  0.01964115    -0.02500
H295        H  0.75938710  0.96533534  0.93306556     0.04900
C296        C  0.73492021  0.99524483  0.99185528     0.20300
H297        H  0.87829800  0.03340015  0.04356362     0.10100
C298        C  0.72007715  0.95464349  0.00985462    -0.15900
C299        C  0.68040379  0.95262693  0.01424646     0.03100
C300        C  0.65464891  0.99179773  0.00025327    -0.11200
C301        C  0.66899077  0.03182630  0.98079650    -0.01200
C302        C  0.70896849  0.03388543  0.97684485    -0.06400
H303        H  0.73972321  0.92460563  0.02104659     0.06100
H304        H  0.64964576  0.06211270  0.96985050     0.09500
Br305      Br  0.80420738  0.04093024  0.06746163    -0.06100
Br306      Br  0.83240546  0.95942474  0.90743359    -0.03000
Br307      Br  0.66271065  0.89472691  0.03827348    -0.00200
Br308      Br  0.72757291  0.09050549  0.95193079    -0.04600
C309        C  0.14566170  0.00962595  0.02240194    -0.12000
C310        C  0.18318133  0.00806921  0.05717458     0.03500
C311        C  0.22225068  0.00831182  0.05167414    -0.12500
C312        C  0.22529495  0.01141249  0.01223216     0.18400
C313        C  0.18864223  0.01773667  0.97767552    -0.09500
C314        C  0.14938859  0.01682480  0.98289874    -0.02500
H315        H  0.25045096  0.00441312  0.07847865     0.04900
C316        C  0.26644511  0.00444231  0.00795577     0.20300
H317        H  0.12155362  0.01927937  0.95563042     0.10100
C318        C  0.27108629  0.96497735  0.98951348    -0.15900
C319        C  0.30961943  0.95667265  0.98541652     0.03100
C320        C  0.34467435  0.98752534  0.00096570    -0.11200
C321        C  0.34021418  0.02622525  0.02046456    -0.01200
C322        C  0.30149552  0.03517623  0.02357658    -0.06400
H323        H  0.24449156  0.94060327  0.97810529     0.06100
H324        H  0.36652284  0.05107646  0.03153692     0.09500
Br325      Br  0.19057072  0.02678070  0.92269281    -0.06100
Br326      Br  0.18452512  0.00452075  0.11329022    -0.03000
Br327      Br  0.31289335  0.90216605  0.95950651    -0.00200
Br328      Br  0.29741281  0.09164192  0.04662304    -0.04600
C329        C  0.93889636  0.16550150  0.99816144    -0.12000
C330        C  0.93760359  0.20739313  0.97222783     0.03500
C331        C  0.91559721  0.24514683  0.97565067    -0.12500
C332        C  0.89440594  0.24151098  0.00425507     0.18400
C333        C  0.89624062  0.20015485  0.03053611    -0.09500
C334        C  0.91863337  0.16275389  0.02756901    -0.02500
H335        H  0.91463017  0.27724940  0.95570341     0.04900
C336        C  0.87078827  0.28124490  0.00678292     0.20300
H337        H  0.91825089  0.13041901  0.04683462     0.10100
C338        C  0.82894956  0.28600182  0.98063664    -0.15900
C339        C  0.80529806  0.32248713  0.98372371     0.03100
C340        C  0.82374536  0.35454270  0.01357452    -0.11200
C341        C  0.86572045  0.34941695  0.03952874    -0.01200
C342        C  0.88921158  0.31332982  0.03625796    -0.06400
H343        H  0.81457097  0.26092291  0.95815457     0.06100
H344        H  0.88080251  0.37433737  0.06200245     0.09500
Br345      Br  0.86682278  0.19241349  0.06944162    -0.06100
Br346      Br  0.96559751  0.21516755  0.93212636    -0.03000
Br347      Br  0.74773593  0.32526321  0.94817122    -0.00200
Br348      Br  0.94648991  0.30949647  0.07244231    -0.04600
C349        C  0.17513764  0.64161066  0.99517505    -0.12000
C350        C  0.19272611  0.66878483  0.02904730     0.03500
C351        C  0.17079553  0.70656774  0.03302665    -0.12500
C352        C  0.13126957  0.71743244  0.00398122     0.18400
C353        C  0.11359270  0.69003807  0.97066170    -0.09500
C354        C  0.13553202  0.65293678  0.96635138    -0.02500
H355        H  0.18484488  0.72796233  0.05852587     0.04900
C356        C  0.10999291  0.75933593  0.00691320     0.20300
H357        H  0.12093521  0.63213044  0.94057344     0.10100
C358        C  0.11234058  0.80018914  0.98142154    -0.15900
C359        C  0.09266724  0.84073176  0.98281777     0.03100
C360        C  0.06981645  0.84082912  0.01009749    -0.11200
C361        C  0.06736366  0.79965900  0.03553974    -0.01200
C362        C  0.08691648  0.75897404  0.03383589    -0.06400
H363        H  0.13016968  0.80070044  0.96071079     0.06100
H364        H  0.05035738  0.79923222  0.05695341     0.09500
Br365      Br  0.05898814  0.70135655  0.93071678    -0.06100
Br366      Br  0.24726114  0.65785371  0.06926169    -0.03000
Br367      Br  0.10160566  0.89592052  0.94944556    -0.00200
Br368      Br  0.08092792  0.70352431  0.06819962    -0.04600
C369        C  0.74300433  0.48108264  0.65212853    -0.12000
C370        C  0.72366086  0.51841418  0.66082830     0.03500
C371        C  0.71699311  0.51676114  0.69866592    -0.12500
C372        C  0.72949233  0.47832585  0.72826210     0.18400
C373        C  0.74812330  0.44067334  0.71924618    -0.09500
C374        C  0.75483669  0.44233356  0.68145318    -0.02500
H375        H  0.70333711  0.54627763  0.70563630     0.04900
C376        C  0.72710136  0.48053431  0.76983842     0.20300
H377        H  0.76986547  0.41352682  0.67512721     0.10100
C378        C  0.69473625  0.45574246  0.78129864    -0.15900
C379        C  0.69213958  0.45814557  0.82059015     0.03100
C380        C  0.72226415  0.48572869  0.84887145    -0.11200
C381        C  0.75501691  0.50949694  0.83751000    -0.01200
C382        C  0.75751219  0.50725052  0.79843956    -0.06400
H383        H  0.67163053  0.43439355  0.75972143     0.06100
H384        H  0.77856737  0.53053974  0.85902672     0.09500
Br385      Br  0.76691892  0.38756786  0.75853769    -0.06100
Br386      Br  0.70917850  0.57400356  0.62360091    -0.03000
Br387      Br  0.64890388  0.42085969  0.83518143    -0.00200
Br388      Br  0.80346693  0.54080064  0.78565892    -0.04600
C389        C  0.75455031  0.49085419  0.35336265    -0.12000
C390        C  0.78961918  0.51763157  0.34796133     0.03500
C391        C  0.79439160  0.52391813  0.30913664    -0.12500
C392        C  0.76474749  0.50434229  0.27519441     0.18400
C393        C  0.73069723  0.47630998  0.28063403    -0.09500
C394        C  0.72571461  0.46999958  0.31929739    -0.02500
H395        H  0.82078094  0.54534640  0.30511080     0.04900
C396        C  0.76928469  0.51415412  0.23412116     0.20300
H397        H  0.69893029  0.44880070  0.32263398     0.10100
C398        C  0.79961519  0.49118963  0.22510415    -0.15900
C399        C  0.80231605  0.49652194  0.18545833     0.03100
C400        C  0.77409563  0.52547436  0.15388330    -0.11200
C401        C  0.74498584  0.55004757  0.16370110    -0.01200
C402        C  0.74270363  0.54491858  0.20345965    -0.06400
H403        H  0.82034916  0.46771498  0.24870822     0.06100
H404        H  0.72340163  0.57281050  0.14017219     0.09500
Br405      Br  0.69038893  0.44579253  0.23607108    -0.06100
Br406      Br  0.83047331  0.54990038  0.39087045    -0.03000
Br407      Br  0.84275354  0.45981066  0.17618686    -0.00200
Br408      Br  0.70268684  0.58036038  0.21458904    -0.04600
C409        C  0.23224058  0.49363577  0.64506925    -0.12000
C410        C  0.25368551  0.52236845  0.67740035     0.03500
C411        C  0.24794102  0.51335525  0.71562741    -0.12500
C412        C  0.22199153  0.47564765  0.72339983     0.18400
C413        C  0.20031823  0.44718878  0.69152123    -0.09500
C414        C  0.20528531  0.45646884  0.65279695    -0.02500
H415        H  0.26449893  0.53564478  0.73992862     0.04900
C416        C  0.21886428  0.46693246  0.76532073     0.20300
H417        H  0.18888382  0.43350092  0.62902872     0.10100
C418        C  0.18141869  0.47559489  0.77159000    -0.15900
C419        C  0.17930841  0.47401941  0.81146660     0.03100
C420        C  0.21554774  0.46367452  0.84636359    -0.11200
C421        C  0.25230586  0.45264390  0.83944921    -0.01200
C422        C  0.25421849  0.45439788  0.79969203    -0.06400
H423        H  0.15401888  0.48524832  0.74529047     0.06100
H424        H  0.28048129  0.44395380  0.86517070     0.09500
Br425      Br  0.16573669  0.39359716  0.70023020    -0.06100
Br426      Br  0.29184516  0.57448368  0.67299299    -0.03000
Br427      Br  0.12612498  0.48784681  0.81503267    -0.00200
Br428      Br  0.30631561  0.44019435  0.79396281    -0.04600
C429        C  0.26924471  0.49824235  0.35869968    -0.12000
C430        C  0.26589230  0.45854829  0.33681693     0.03500
C431        C  0.27096135  0.46392068  0.29819994    -0.12500
C432        C  0.27917587  0.50831862  0.28048105     0.18400
C433        C  0.28394291  0.54774185  0.30267986    -0.09500
C434        C  0.27938332  0.54246279  0.34165691    -0.02500
H435        H  0.26758831  0.43334185  0.28143388     0.04900
C436        C  0.28017055  0.51244869  0.23787896     0.20300
H437        H  0.28198023  0.57331585  0.35787528     0.10100
C438        C  0.24426276  0.52662837  0.20519662    -0.15900
C439        C  0.24160186  0.52490655  0.16416687     0.03100
C440        C  0.27533914  0.50751246  0.15514875    -0.11200
C441        C  0.31222745  0.49583835  0.18835081    -0.01200
C442        C  0.31482313  0.49839134  0.22924658    -0.06400
H443        H  0.21766207  0.53812704  0.21171963     0.06100
H444        H  0.33898300  0.48344722  0.18272648     0.09500
Br445      Br  0.29574950  0.60936120  0.28042593    -0.06100
Br446      Br  0.25523441  0.39585696  0.35812668    -0.03000
Br447      Br  0.19072206  0.54714259  0.12294313    -0.00200
Br448      Br  0.36613941  0.48213325  0.27262699    -0.04600
C449        C  0.60164972  0.52025983  0.49647521    -0.12000
C450        C  0.56237986  0.52612300  0.46508994     0.03500
C451        C  0.52576136  0.52155911  0.47526046    -0.12500
C452        C  0.52775978  0.51140262  0.51630791     0.18400
C453        C  0.56697879  0.50760153  0.54784592    -0.09500
C454        C  0.60358505  0.51244907  0.53776720    -0.02500
H455        H  0.49550811  0.52527852  0.45102738     0.04900
C456        C  0.48831627  0.50341585  0.52508219     0.20300
H457        H  0.63351227  0.50724692  0.56218876     0.10100
C458        C  0.46255136  0.46363638  0.51132970    -0.15900
C459        C  0.42282330  0.45729583  0.51539734     0.03100
C460        C  0.40917394  0.49069581  0.53418824    -0.11200
C461        C  0.43566950  0.52937163  0.54938401    -0.01200
C462        C  0.47475698  0.53644467  0.54427514    -0.06400
H463        H  0.47295881  0.43822816  0.49640400     0.06100
H464        H  0.42473770  0.55584382  0.56282555     0.09500
Br465      Br  0.57215703  0.49238383  0.60462672    -0.06100
Br466      Br  0.55685143  0.54104732  0.40817937    -0.03000
Br467      Br  0.38834851  0.40307870  0.49480727    -0.00200
Br468      Br  0.50635613  0.59391363  0.56013662    -0.04600
C469        C  0.89629874  0.44474186  0.50944237    -0.12000
C470        C  0.93646802  0.44287287  0.54003339     0.03500
C471        C  0.97212021  0.45265199  0.52868589    -0.12500
C472        C  0.96834692  0.46437996  0.48734948     0.18400
C473        C  0.92868155  0.46255922  0.45652148    -0.09500
C474        C  0.89301210  0.45245158  0.46771860    -0.02500
H475        H  0.00297173  0.45202832  0.55226590     0.04900
C476        C  0.00660161  0.47665211  0.47725960     0.20300
H477        H  0.86247599  0.45386200  0.44371525     0.10100
C478        C  0.01960724  0.44536318  0.45646135    -0.15900
C479        C  0.05854488  0.45213691  0.45111958     0.03100
C480        C  0.08541781  0.49070209  0.46751035    -0.11200
C481        C  0.07157153  0.52306269  0.48698298    -0.01200
C482        C  0.03209229  0.51657983  0.49149311    -0.06400
H483        H  0.00004552  0.41442237  0.44583906     0.06100
H484        H  0.09178781  0.55292501  0.49932255     0.09500
Br485      Br  0.92139445  0.47715451  0.39917834    -0.06100
Br486      Br  0.94493523  0.42723398  0.59749747    -0.03000
Br487      Br  0.07410992  0.40438233  0.42497716    -0.00200
Br488      Br  0.01432378  0.56272843  0.51740053    -0.04600
C489        C  0.50697266  0.99705627  0.65127158    -0.12000
C490        C  0.53259411  0.02807240  0.67962366     0.03500
C491        C  0.52733099  0.02884323  0.71767804    -0.12500
C492        C  0.49652774  0.99981036  0.72792510     0.18400
C493        C  0.46958964  0.97060629  0.69911506    -0.09500
C494        C  0.47503428  0.96927038  0.66116552    -0.02500
H495        H  0.54733737  0.05229757  0.73947127     0.04900
C496        C  0.49342538  0.00016268  0.76910206     0.20300
H497        H  0.45462084  0.94584409  0.63960429     0.10100
C498        C  0.45898146  0.02032002  0.77322183    -0.15900
C499        C  0.45482091  0.02084187  0.81184944     0.03100
C500        C  0.48623761  0.00131233  0.84756066    -0.11200
C501        C  0.52086908  0.98136290  0.84291557    -0.01200
C502        C  0.52457814  0.98064108  0.80420653    -0.06400
H503        H  0.43496518  0.03536166  0.74606415     0.06100
H504        H  0.54530541  0.96595301  0.86947289     0.09500
Br505      Br  0.42589151  0.93098098  0.71079049    -0.06100
Br506      Br  0.57346100  0.07250704  0.66777860    -0.03000
Br507      Br  0.40457996  0.04750632  0.81215483    -0.00200
Br508      Br  0.57207375  0.95125458  0.80061178    -0.04600
C509        C  0.50944108  0.00588346  0.15065923    -0.12000
C510        C  0.49534768  0.04716056  0.15970075     0.03500
C511        C  0.49128354  0.04906394  0.19820593    -0.12500
C512        C  0.50085306  0.01050725  0.22779231     0.18400
C513        C  0.51492936  0.96953360  0.21903153    -0.09500
C514        C  0.51942051  0.96757679  0.18083016    -0.02500
H515        H  0.48039073  0.08062481  0.20507651     0.04900
C516        C  0.49436250  0.01261042  0.26717775     0.20300
H517        H  0.53001706  0.93554834  0.17446730     0.10100
C518        C  0.45783411  0.99108392  0.27242200    -0.15900
C519        C  0.45155302  0.98915821  0.31023016     0.03100
C520        C  0.48254162  0.00937679  0.34377700    -0.11200
C521        C  0.51887948  0.03170506  0.33789837    -0.01200
C522        C  0.52484196  0.03355672  0.29990475    -0.06400
H523        H  0.43449536  0.97472956  0.24709651     0.06100
H524        H  0.54288590  0.04771040  0.36295705     0.09500
Br525      Br  0.52796354  0.91534502  0.25827243    -0.06100
Br526      Br  0.48261146  0.10273799  0.12192396    -0.03000
Br527      Br  0.40113430  0.95565529  0.31359107    -0.00200
Br528      Br  0.57541943  0.06385622  0.29425914    -0.04600
C529        C  0.32076060  0.64176708  0.51577199    -0.12000
C530        C  0.35524524  0.66281485  0.54606505     0.03500
C531        C  0.36913867  0.70903762  0.53849959    -0.12500
C532        C  0.34900765  0.73617784  0.50183610     0.18400
C533        C  0.31376001  0.71631441  0.47225832    -0.09500
C534        C  0.30029083  0.66939258  0.47907080    -0.02500
H535        H  0.39630579  0.72394143  0.56143507     0.04900
C536        C  0.36631641  0.78459485  0.49514394     0.20300
H537        H  0.27352997  0.65458743  0.45566665     0.10100
C538        C  0.38470809  0.79507125  0.46433744    -0.15900
C539        C  0.40404631  0.83939197  0.45919003     0.03100
C540        C  0.40555923  0.87423989  0.48548455    -0.11200
C541        C  0.38717317  0.86348857  0.51632632    -0.01200
C542        C  0.36763495  0.81942034  0.52118872    -0.06400
H543        H  0.38468967  0.76829452  0.44466473     0.06100
H544        H  0.38721184  0.88988397  0.53636442     0.09500
Br545      Br  0.28213100  0.75271159  0.42304009    -0.06100
Br546      Br  0.38696300  0.63096817  0.59808567    -0.03000
Br547      Br  0.42994924  0.84905900  0.41742572    -0.00200
Br548      Br  0.34192549  0.80908798  0.56305259    -0.04600
C549        C  0.66703919  0.35769656  0.49067345    -0.12000
C550        C  0.64489609  0.34312768  0.51831792     0.03500
C551        C  0.63013388  0.29634440  0.52166174    -0.12500
C552        C  0.63653378  0.26330482  0.49779999     0.18400
C553        C  0.65825758  0.27757361  0.47010286    -0.09500
C554        C  0.67336210  0.32426231  0.46681532    -0.02500
H555        H  0.61289402  0.28574857  0.54261342     0.04900
C556        C  0.61972951  0.21435098  0.50198919     0.20300
H557        H  0.69009943  0.33445894  0.44537535     0.10100
C558        C  0.58427332  0.19830735  0.47064793    -0.15900
C559        C  0.56685852  0.15265804  0.47416651     0.03100
C560        C  0.58521387  0.12182639  0.50972399    -0.11200
C561        C  0.62055653  0.13847512  0.54121699    -0.01200
C562        C  0.63774133  0.18411360  0.53758413    -0.06400
H563        H  0.56973821  0.22171873  0.44348387     0.06100
H564        H  0.63542976  0.11564689  0.56867250     0.09500
Br565      Br  0.66840059  0.23434484  0.43651692    -0.06100
Br566      Br  0.63061929  0.38537913  0.55026907    -0.03000
Br567      Br  0.51667463  0.13624105  0.43031833    -0.00200
Br568      Br  0.68657482  0.20336141  0.58155587    -0.04600
C569        C  0.97657600  0.98481155  0.84958627    -0.12000
C570        C  0.93819183  0.97443887  0.81814431     0.03500
C571        C  0.93689329  0.97496278  0.77727965    -0.12500
C572        C  0.97326016  0.98543580  0.76672853     0.18400
C573        C  0.01167121  0.99494692  0.79810236    -0.09500
C574        C  0.01309806  0.99424480  0.83896856    -0.02500
H575        H  0.90720432  0.96756690  0.75348871     0.04900
C576        C  0.97071942  0.98766512  0.72293038     0.20300
H577        H  0.04280816  0.00251439  0.86239650     0.10100
C578        C  0.98019020  0.03058560  0.70357855    -0.15900
C579        C  0.98346095  0.03322795  0.66427334     0.03100
C580        C  0.97722631  0.99227872  0.64343641    -0.11200
C581        C  0.96423158  0.95013530  0.66136701    -0.01200
C582        C  0.96078024  0.94758444  0.70070046    -0.06400
H583        H  0.98619604  0.06204622  0.71966928     0.06100
H584        H  0.95883972  0.91845942  0.64571227     0.09500
Br585      Br  0.06327088  0.00910111  0.78684914    -0.06100
Br586      Br  0.88660258  0.95759843  0.82871347    -0.03000
Br587      Br  0.99565448  0.09396784  0.64038548    -0.00200
Br588      Br  0.94502647  0.88791560  0.72356402    -0.04600
C589        C  0.02502953  0.99137453  0.36390318    -0.12000
C590        C  0.02313770  0.95412639  0.33987365     0.03500
C591        C  0.02669821  0.96348749  0.30075552    -0.12500
C592        C  0.03351334  0.00947075  0.28502511     0.18400
C593        C  0.03787934  0.04656750  0.30982379    -0.09500
C594        C  0.03357935  0.03735309  0.34888320    -0.02500
H595        H  0.02398710  0.93454186  0.28232405     0.04900
C596        C  0.03487721  0.01719619  0.24236543     0.20300
H597        H  0.03564997  0.06640549  0.36701242     0.10100
C598        C  0.00243267  0.04077039  0.21120566    -0.15900
C599        C  0.99925698  0.04249081  0.16960617     0.03100
C600        C  0.02930079  0.02037645  0.15847261    -0.11200
C601        C  0.06276867  0.99873027  0.19025210    -0.01200
C602        C  0.06553175  0.99668926  0.23152114    -0.06400
H603        H  0.97850644  0.05646842  0.21915918     0.06100
H604        H  0.08643871  0.98162990  0.18303345     0.09500
Br605      Br  0.05031614  0.11002880  0.29190832    -0.06100
Br606      Br  0.01799907  0.88941356  0.35951525    -0.03000
Br607      Br  0.95278665  0.07509244  0.13029277    -0.00200
Br608      Br  0.11145586  0.96435061  0.27191614    -0.04600
C609        C  0.63881671  0.95004132  0.49285241    -0.12000
C610        C  0.67385164  0.92868532  0.52280592     0.03500
C611        C  0.71168607  0.92905870  0.51513178    -0.12500
C612        C  0.71509774  0.95077814  0.47816966     0.18400
C613        C  0.67959312  0.96932388  0.44722683    -0.09500
C614        C  0.64155441  0.96841405  0.45455957    -0.02500
H615        H  0.73905097  0.91424424  0.53875154     0.04900
C616        C  0.75681332  0.95738840  0.47413095     0.20300
H617        H  0.61495186  0.98519414  0.43138865     0.10100
C618        C  0.77224972  0.92187817  0.45952650    -0.15900
C619        C  0.81300701  0.92595053  0.45795894     0.03100
C620        C  0.83859134  0.96664418  0.47071601    -0.11200
C621        C  0.82279096  0.00217081  0.48527545    -0.01200
C622        C  0.78219897  0.99770089  0.48718243    -0.06400
H623        H  0.75291038  0.89035496  0.45043358     0.06100
H624        H  0.84227617  0.03319839  0.49572255     0.09500
Br625      Br  0.68260428  0.99956538  0.39606527    -0.06100
Br626      Br  0.67218633  0.89949465  0.57486813    -0.03000
Br627      Br  0.83288106  0.87263855  0.44219309    -0.00200
Br628      Br  0.76314532  0.04650688  0.50924680    -0.04600
C629        C  0.35553794  0.02774802  0.51309673    -0.12000
C630        C  0.31805370  0.04910690  0.48878874     0.03500
C631        C  0.28180180  0.03860866  0.49902179    -0.12500
C632        C  0.28263246  0.00643711  0.53277514     0.18400
C633        C  0.32035875  0.98632403  0.55788079    -0.09500
C634        C  0.35678772  0.99767189  0.54826050    -0.02500
H635        H  0.25260093  0.05433475  0.47993030     0.04900
C636        C  0.24323779  0.99295792  0.54007698     0.20300
H637        H  0.38540594  0.98019803  0.56648223     0.10100
C638        C  0.21577984  0.95979648  0.51629553    -0.15900
C639        C  0.17557397  0.95064896  0.51861327     0.03100
C640        C  0.16297846  0.97487965  0.54523146    -0.11200
C641        C  0.19163710  0.00577891  0.57090820    -0.01200
C642        C  0.23156923  0.01527841  0.56819758    -0.06400
H643        H  0.22519625  0.94225650  0.49495137     0.06100
H644        H  0.18194938  0.02510093  0.59102577     0.09500
Br645      Br  0.32261522  0.94038210  0.60317996    -0.06100
Br646      Br  0.31489737  0.09170821  0.44116621    -0.03000
Br647      Br  0.13904931  0.90544504  0.48474137    -0.00200
Br648      Br  0.26784936  0.06167445  0.60075087    -0.04600
C649        C  0.94133024  0.83157449  0.50232758    -0.12000
C650        C  0.92561768  0.81623769  0.53500520     0.03500
C651        C  0.90923742  0.77016763  0.53858951    -0.12500
C652        C  0.90856429  0.73784606  0.51097549     0.18400
C653        C  0.92624827  0.75186261  0.47997610    -0.09500
C654        C  0.94211422  0.79820015  0.47570837    -0.02500
H655        H  0.89583174  0.75974135  0.56265290     0.04900
C656        C  0.88728875  0.69070345  0.51396835     0.20300
H657        H  0.95436228  0.80831418  0.45080581     0.10100
C658        C  0.85079398  0.67837325  0.48174096    -0.15900
C659        C  0.82867580  0.63525001  0.48430090     0.03100
C660        C  0.84245213  0.60374209  0.52013849    -0.11200
C661        C  0.87889756  0.61635300  0.55239564    -0.01200
C662        C  0.90142129  0.65897152  0.54941762    -0.06400
H663        H  0.83918466  0.70272149  0.45455114     0.06100
H664        H  0.89069290  0.59227773  0.57974715     0.09500
Br665      Br  0.93001290  0.70857432  0.44320766    -0.06100
Br666      Br  0.92267844  0.85565215  0.57512373    -0.03000
Br667      Br  0.77879030  0.62283104  0.43878527    -0.00200
Br668      Br  0.95260058  0.67106476  0.59366904    -0.04600
C669        C  0.17617884  0.35195158  0.49292635    -0.12000
C670        C  0.18222881  0.31317973  0.47420319     0.03500
C671        C  0.16237988  0.26940480  0.48012199    -0.12500
C672        C  0.13456056  0.26378807  0.50272982     0.18400
C673        C  0.12844493  0.30276386  0.52122089    -0.09500
C674        C  0.14979414  0.34571429  0.51695179    -0.02500
H675        H  0.16835585  0.23965497  0.46657719     0.04900
C676        C  0.11354630  0.21691328  0.50808410     0.20300
H677        H  0.14361055  0.37534787  0.53054341     0.10100
C678        C  0.11875509  0.19640828  0.54801966    -0.15900
C679        C  0.10019677  0.15239347  0.55505878     0.03100
C680        C  0.07672560  0.12629767  0.52137381    -0.11200
C681        C  0.07112708  0.14734284  0.48124788    -0.01200
C682        C  0.08900680  0.19202503  0.47442280    -0.06400
H683        H  0.13777801  0.21483566  0.57422305     0.06100
H684        H  0.05340159  0.12864271  0.45479502     0.09500
Br685      Br  0.08860640  0.30105401  0.54972633    -0.06100
Br686      Br  0.21746537  0.31763726  0.44075562    -0.03000
Br687      Br  0.10888463  0.13170536  0.61196896    -0.00200
Br688      Br  0.07818432  0.21746087  0.41836542    -0.04600
loop_ 
_geom_bond_atom_site_label_1 
_geom_bond_atom_site_label_2 
_geom_bond_distance 
_geom_bond_site_symmetry_2 
_ccdc_geom_bond_type 
O1           Ni7   1.941       .  S
O1           C22   1.276   1_655  A
O2          Ni25   1.918       .  S
O2           C11   1.268       .  A
O3           Ni7   1.908       .  S
O3          Ni25   1.905       .  S
O3          Ni19   1.901   1_655  S
O3           H26   0.966   1_565  S
C4           O21   1.276       .  A
C4           O13   1.276       .  A
C4          C640   1.458       .  S
O5          Ni24   1.927   1_545  S
O5           C11   1.270   1_445  A
O6          Ni24   1.907   1_545  S
O6            C8   1.267       .  A
Ni7          O10   1.932       .  S
Ni7          O12   1.919       .  S
C8           O18   1.277       .  A
C8          C680   1.500       .  S
O9          Ni25   1.895       .  S
O9           C15   1.273       .  A
O10          C15   1.277       .  A
C11         C580   1.484       .  S
O12          C14   1.272       .  A
O13         Ni24   1.910       .  S
C14          O20   1.271       .  A
C14         C649   1.501       .  S
C15         C620   1.467       .  S
H16          O17   0.966       .  S
O17         Ni25   1.900   1_455  S
O17         Ni19   1.900       .  S
O17         Ni24   1.898       .  S
O18         Ni19   1.939   1_545  S
Ni19         O23   1.913   1_565  S
Ni19         O21   1.909       .  S
O20         Ni25   1.936       .  S
C22          O23   1.270   1_565  A
C22         C589   1.487       .  S
O27         Ni33   1.917       .  S
O27          C48   1.268       .  A
O28         Ni51   1.890   1_565  S
O28          C37   1.261       .  A
O29         Ni33   1.923       .  S
O29         Ni51   1.904       .  S
O29         Ni45   1.912   1_545  S
O29          H52   0.966       .  S
C30          O47   1.267       .  A
C30          O39   1.271       .  A
C30         C609   1.465       .  S
O31         Ni50   1.925   1_545  S
O31          C37   1.268   1_545  A
O32         Ni50   1.907   1_545  S
O32          C34   1.270       .  A
Ni33         O36   1.920       .  S
Ni33         O38   1.910   1_545  S
C34          O44   1.274       .  A
C34         C560   1.491       .  S
O35         Ni51   1.883       .  S
O35          C41   1.260       .  A
O36          C41   1.269       .  A
C37         C489   1.475       .  S
O38          C40   1.271       .  A
O39         Ni50   1.918       .  S
C40          O46   1.278       .  A
C40         C540   1.488       .  S
C41         C629   1.452       .  S
H42          O43   0.966       .  S
O43         Ni51   1.897   1_565  S
O43         Ni45   1.907       .  S
O43         Ni50   1.922       .  S
O44         Ni45   1.942   1_545  S
Ni45         O49   1.895   1_565  S
Ni45         O47   1.895       .  S
O46         Ni51   1.948   1_565  S
C48          O49   1.266       .  A
C48         C520   1.478       .  S
O53         Ni59   1.929       .  S
O53          C74   1.270       .  A
O54         Ni77   1.923       .  S
O54          C63   1.269       .  A
O55         Ni59   1.912       .  S
O55         Ni77   1.912       .  S
O55         Ni71   1.900       .  S
O55          H78   0.966       .  S
C56          O73   1.273       .  A
C56          O65   1.274       .  A
C56         C460   1.456       .  S
O57         Ni76   1.921       .  S
O57          C63   1.266       .  A
O58         Ni76   1.903       .  S
O58          C60   1.267       .  A
Ni59         O62   1.916       .  S
Ni59         O64   1.912       .  S
C60          O70   1.277       .  A
C60         C529   1.496       .  S
O61         Ni77   1.901       .  S
O61          C67   1.275       .  A
O62          C67   1.274       .  A
C63         C409   1.496       .  S
O64          C66   1.268       .  A
O65         Ni76   1.914       .  S
C66          O72   1.271       .  A
C66         C669   1.485       .  S
C67         C480   1.462       .  S
H68          O69   0.966       .  S
O69         Ni77   1.906       .  S
O69         Ni71   1.909       .  S
O69         Ni76   1.906       .  S
O70         Ni71   1.945       .  S
Ni71         O75   1.915       .  S
Ni71         O73   1.903       .  S
O72         Ni77   1.927       .  S
C74          O75   1.269       .  A
C74         C429   1.483       .  S
O79         Ni85   1.930       .  S
O79         C100   1.273       .  A
O80        Ni103   1.905       .  S
O80          C89   1.266       .  A
O81         Ni85   1.921       .  S
O81        Ni103   1.904       .  S
O81         Ni97   1.903       .  S
O81         H104   0.954       .  S
C82          O99   1.262       .  A
C82          O91   1.271       .  A
C82         C469   1.467       .  S
O83        Ni102   1.934       .  S
O83          C89   1.273       .  A
O84        Ni102   1.910       .  S
O84          C86   1.275       .  A
Ni85         O88   1.932       .  S
Ni85         O90   1.909       .  S
C86          O96   1.281       .  A
C86         C660   1.489       .  S
O87        Ni103   1.886       .  S
O87          C93   1.262       .  A
O88          C93   1.271       .  A
C89         C369   1.476       .  S
O90          C92   1.273       .  A
O91        Ni102   1.929       .  S
C92          O98   1.280       .  A
C92         C549   1.489       .  S
C93         C449   1.464       .  S
H94          O95   0.966       .  S
O95        Ni103   1.907       .  S
O95         Ni97   1.907       .  S
O95        Ni102   1.920       .  S
O96         Ni97   1.957       .  S
Ni97        O101   1.907       .  S
Ni97         O99   1.886       .  S
O98        Ni103   1.954       .  S
C100        O101   1.267       .  A
C100        C389   1.489       .  S
O105       Ni111   1.929       .  S
O105        C126   1.270   1_545  A
O106       Ni129   1.919       .  S
O106        C115   1.269   1_655  A
O107       Ni111   1.904       .  S
O107       Ni129   1.903   1_556  S
O107       Ni123   1.914   1_645  S
O107        H130   0.966   1_655  S
C108        O125   1.280   1_554  A
C108        O117   1.278       .  A
C108        C360   1.482       .  S
O109       Ni128   1.930   1_545  S
O109        C115   1.272       .  A
O110       Ni128   1.905       .  S
O110        C112   1.267       .  A
Ni111       O114   1.922       .  S
Ni111       O116   1.909       .  S
C112        O122   1.273   1_554  A
C112        C309   1.493   1_565  S
O113       Ni129   1.916       .  S
O113        C119   1.278   1_554  A
O114        C119   1.277       .  A
C115        C600   1.497       .  S
O116        C118   1.269       .  A
O117       Ni128   1.925       .  S
C118        O124   1.273   1_556  A
C118        C289   1.484       .  S
C119        C329   1.473       .  S
H120        O121   0.966   1_655  S
O121       Ni129   1.916   1_465  S
O121       Ni123   1.907   1_554  S
O121       Ni128   1.906       .  S
O122       Ni123   1.928       .  S
Ni123       O127   1.919       .  S
Ni123       O125   1.926       .  S
O124       Ni129   1.928       .  S
C126        O127   1.272   1_655  A
C126        C569   1.488       .  S
O131       Ni137   1.937       .  S
O131        C152   1.276   1_565  A
O132       Ni155   1.900       .  S
O132        C141   1.268   1_565  A
O133       Ni137   1.907   1_545  S
O133       Ni155   1.896   1_544  S
O133       Ni149   1.908       .  S
O133        H156   0.966       .  S
C134        O151   1.276   1_556  A
C134        O143   1.277       .  A
C134        C320   1.477   1_556  S
O135       Ni154   1.926   1_545  S
O135        C141   1.270       .  A
O136       Ni154   1.910   1_545  S
O136        C138   1.269       .  A
Ni137       O140   1.938       .  S
Ni137       O142   1.915       .  S
C138        O148   1.276   1_556  A
C138        C260   1.493       .  S
O139       Ni155   1.917   1_545  S
O139        C145   1.277   1_546  A
O140        C145   1.279       .  A
C141        C500   1.484       .  S
O142        C144   1.270       .  A
O143       Ni154   1.925       .  S
C144        O150   1.271   1_554  A
C144        C280   1.493       .  S
C145        C300   1.480       .  S
H146        O147   0.966       .  S
O147       Ni155   1.912       .  S
O147       Ni149   1.890   1_566  S
O147       Ni154   1.897       .  S
O148       Ni149   1.936       .  S
Ni149       O153   1.885       .  S
Ni149       O151   1.920   1_545  S
O150       Ni155   1.930       .  S
C152        O153   1.265       .  A
C152        C509   1.474       .  S
O157       Ni163   1.938       .  S
O157        C178   1.274       .  A
O158       Ni181   1.902       .  S
O158        C167   1.268       .  A
O159       Ni163   1.904       .  S
O159       Ni181   1.902   1_556  S
O159       Ni175   1.923       .  S
O159        H182   0.966       .  S
C160        O177   1.279   1_554  A
C160        O169   1.279       .  A
C160        C249   1.490       .  S
O161       Ni180   1.949       .  S
O161        C167   1.279       .  A
O162       Ni180   1.930       .  S
O162        C164   1.273       .  A
Ni163       O166   1.921       .  S
Ni163       O168   1.928       .  S
C164        O174   1.279   1_554  A
C164        C209   1.514       .  S
O165       Ni181   1.928       .  S
O165        C171   1.279   1_554  A
O166        C171   1.279       .  A
C167        C440   1.498       .  S
O168        C170   1.273       .  A
O169       Ni180   1.939       .  S
C170        O176   1.288   1_556  A
C170        C229   1.539       .  S
C171        C349   1.485       .  S
H172        O173   0.966       .  S
O173       Ni181   1.928       .  S
O173       Ni175   1.910   1_554  S
O173       Ni180   1.922       .  S
O174       Ni175   1.958       .  S
Ni175       O179   1.907       .  S
Ni175       O177   1.923       .  S
O176       Ni181   1.979       .  S
C178        O179   1.270       .  A
C178        C420   1.499       .  S
O183       Ni189   1.949       .  S
O183        C204   1.276       .  A
O184       Ni207   1.906       .  S
O184        C193   1.268       .  A
O185       Ni189   1.925       .  S
O185       Ni207   1.911   1_556  S
O185       Ni201   1.929       .  S
O185        H208   0.966       .  S
C186        O203   1.280   1_554  A
C186        O195   1.278       .  A
C186        C340   1.474       .  S
O187       Ni206   1.923       .  S
O187        C193   1.271       .  A
O188       Ni206   1.931       .  S
O188        C190   1.273       .  A
Ni189       O192   1.937       .  S
Ni189       O194   1.921       .  S
C190        O200   1.285   1_554  A
C190        C240   1.530       .  S
O191       Ni207   1.911       .  S
O191        C197   1.274   1_554  A
O192        C197   1.278       .  A
C193        C400   1.483       .  S
O194        C196   1.274       .  A
O195       Ni206   1.913       .  S
C196        O202   1.282   1_556  A
C196        C220   1.523       .  S
C197        C269   1.480       .  S
H198        O199   0.966       .  S
O199       Ni207   1.920       .  S
O199       Ni201   1.894   1_554  S
O199       Ni206   1.911       .  S
O200       Ni201   1.972       .  S
Ni201       O205   1.896       .  S
Ni201       O203   1.923       .  S
O202       Ni207   1.970       .  S
C204        O205   1.266       .  A
C204        C380   1.478       .  S
C209        C210   1.416       .  A
C209        C214   1.411   1_554  A
C210        C211   1.418       .  A
C210       Br226   1.916       .  S
C211        C212   1.411       .  A
C211        H215   1.083       .  S
C212        C216   1.518   1_554  S
C212        C213   1.414   1_554  A
C213        C214   1.412       .  A
C213       Br225   1.919       .  S
C214        H217   1.083       .  S
C216        C218   1.411   1_556  A
C216        C222   1.412       .  A
C218        C219   1.420       .  A
C218        H223   1.083       .  S
C219        C220   1.420   1_554  A
C219       Br227   1.918       .  S
C220        C221   1.415       .  A
C221        C222   1.411       .  A
C221        H224   1.083       .  S
C222       Br228   1.920       .  S
C229        C230   1.431       .  A
C229        C234   1.416   1_556  A
C230        C231   1.414       .  A
C230       Br246   1.923       .  S
C231        C232   1.405   1_556  A
C231        H235   1.084   1_455  S
C232        C236   1.534   1_455  S
C232        C233   1.422       .  A
C233        C234   1.426       .  A
C233       Br245   1.917       .  S
C234        H237   1.083       .  S
C236        C238   1.410   1_554  A
C236        C242   1.421       .  A
C238        C239   1.417       .  A
C238        H243   1.083       .  S
C239        C240   1.422   1_556  A
C239       Br247   1.919       .  S
C240        C241   1.415       .  A
C241        C242   1.423       .  A
C241        H244   1.083       .  S
C242       Br248   1.918   1_655  S
C249        C250   1.414       .  A
C249        C254   1.409   1_554  A
C250        C251   1.403       .  A
C250       Br266   1.919       .  S
C251        C252   1.402   1_554  A
C251        H255   1.084       .  S
C252        C256   1.485       .  S
C252        C253   1.407       .  A
C253        C254   1.404       .  A
C253       Br265   1.918       .  S
C254        H257   1.083       .  S
C256        C258   1.397       .  A
C256        C262   1.409   1_556  A
C258        C259   1.397       .  A
C258        H263   1.084       .  S
C259        C260   1.422       .  A
C259       Br267   1.925       .  S
C260        C261   1.409       .  A
C261        C262   1.407   1_556  A
C261        H264   1.083   1_556  S
C262       Br268   1.916       .  S
C269        C270   1.409   1_556  A
C269        C274   1.406       .  A
C270        C271   1.402       .  A
C270       Br286   1.918       .  S
C271        C272   1.407       .  A
C271        H275   1.083       .  S
C272        C276   1.490       .  S
C272        C273   1.411   1_554  A
C273        C274   1.400       .  A
C273       Br285   1.921       .  S
C274        H277   1.084       .  S
C276        C278   1.403   1_554  A
C276        C282   1.410       .  A
C278        C279   1.399       .  A
C278        H283   1.083       .  S
C279        C280   1.417   1_556  A
C279       Br287   1.923       .  S
C280        C281   1.409       .  A
C281        C282   1.402       .  A
C281        H284   1.083       .  S
C282       Br288   1.920       .  S
C289        C290   1.414   1_545  A
C289        C294   1.407   1_556  A
C290        C291   1.402       .  A
C290       Br306   1.917       .  S
C291        C292   1.401       .  A
C291        H295   1.083       .  S
C292        C296   1.478       .  S
C292        C293   1.406   1_566  A
C293        C294   1.399       .  A
C293       Br305   1.919       .  S
C294        H297   1.084       .  S
C296        C298   1.399   1_556  A
C296        C302   1.408   1_565  A
C298        C299   1.399       .  A
C298        H303   1.084       .  S
C299        C300   1.415       .  A
C299       Br307   1.920       .  S
C300        C301   1.404   1_564  A
C301        C302   1.402       .  A
C301        H304   1.083       .  S
C302       Br308   1.917       .  S
C309        C310   1.421       .  A
C309        C314   1.410   1_554  A
C310        C311   1.399       .  A
C310       Br326   1.924       .  S
C311        C312   1.400       .  A
C311        H315   1.084       .  S
C312        C316   1.481       .  S
C312        C313   1.406   1_554  A
C313        C314   1.399       .  A
C313       Br325   1.919       .  S
C314        H317   1.083       .  S
C316        C318   1.406   1_544  A
C316        C322   1.407       .  A
C318        C319   1.401       .  A
C318        H323   1.084       .  S
C319        C320   1.409   1_556  A
C319       Br327   1.918       .  S
C320        C321   1.407   1_565  A
C321        C322   1.397       .  A
C321        H324   1.084       .  S
C322       Br328   1.920       .  S
C329        C330   1.412       .  A
C329        C334   1.404   1_556  A
C330        C331   1.400       .  A
C330       Br346   1.919       .  S
C331        C332   1.401   1_556  A
C331        H335   1.084       .  S
C332        C336   1.470       .  S
C332        C333   1.404       .  A
C333        C334   1.394       .  A
C333       Br345   1.919       .  S
C334        H337   1.083       .  S
C336        C338   1.404   1_554  A
C336        C342   1.402       .  A
C338        C339   1.402       .  A
C338        H343   1.083       .  S
C339        C340   1.410   1_556  A
C339       Br347   1.919       .  S
C340        C341   1.407       .  A
C341        C342   1.391       .  A
C341        H344   1.084       .  S
C342       Br348   1.919       .  S
C349        C350   1.413   1_556  A
C349        C354   1.407       .  A
C350        C351   1.406       .  A
C350       Br366   1.919       .  S
C351        C352   1.405       .  A
C351        H355   1.083       .  S
C352        C356   1.480       .  S
C352        C353   1.403   1_554  A
C353        C354   1.394       .  A
C353       Br365   1.919       .  S
C354        H357   1.082       .  S
C356        C358   1.401   1_554  A
C356        C362   1.407       .  A
C358        C359   1.399       .  A
C358        H363   1.084       .  S
C359        C360   1.413   1_556  A
C359       Br367   1.921       .  S
C360        C361   1.407       .  A
C361        C362   1.403       .  A
C361        H364   1.083       .  S
C362       Br368   1.918       .  S
C369        C370   1.409       .  A
C369        C374   1.403       .  A
C370        C371   1.402       .  A
C370       Br386   1.918       .  S
C371        C372   1.404       .  A
C371        H375   1.083       .  S
C372        C376   1.481       .  S
C372        C373   1.408       .  A
C373        C374   1.401       .  A
C373       Br385   1.917       .  S
C374        H377   1.083       .  S
C376        C378   1.405       .  A
C376        C382   1.406       .  A
C378        C379   1.406       .  A
C378        H383   1.083       .  S
C379        C380   1.411       .  A
C379       Br387   1.918       .  S
C380        C381   1.403       .  A
C381        C382   1.396       .  A
C381        H384   1.084       .  S
C382       Br388   1.919       .  S
C389        C390   1.417       .  A
C389        C394   1.409       .  A
C390        C391   1.401       .  A
C390       Br406   1.919       .  S
C391        C392   1.400       .  A
C391        H395   1.084       .  S
C392        C396   1.479       .  S
C392        C393   1.406       .  A
C393        C394   1.399       .  A
C393       Br405   1.921       .  S
C394        H397   1.083       .  S
C396        C398   1.400       .  A
C396        C402   1.407       .  A
C398        C399   1.401       .  A
C398        H403   1.084       .  S
C399        C400   1.417       .  A
C399       Br407   1.922       .  S
C400        C401   1.407       .  A
C401        C402   1.399       .  A
C401        H404   1.084       .  S
C402       Br408   1.919       .  S
C409        C410   1.421       .  A
C409        C414   1.411       .  A
C410        C411   1.399       .  A
C410       Br426   1.924       .  S
C411        C412   1.400       .  A
C411        H415   1.084       .  S
C412        C416   1.487       .  S
C412        C413   1.407       .  A
C413        C414   1.404       .  A
C413       Br425   1.917       .  S
C414        H417   1.083       .  S
C416        C418   1.402       .  A
C416        C422   1.407       .  A
C418        C419   1.406       .  A
C418        H423   1.084       .  S
C419        C420   1.421       .  A
C419       Br427   1.921       .  S
C420        C421   1.411       .  A
C421        C422   1.398       .  A
C421        H424   1.083       .  S
C422       Br428   1.920       .  S
C429        C430   1.415       .  A
C429        C434   1.406       .  A
C430        C431   1.399       .  A
C430       Br446   1.921       .  S
C431        C432   1.401       .  A
C431        H435   1.084       .  S
C432        C436   1.482       .  S
C432        C433   1.407       .  A
C433        C434   1.403       .  A
C433       Br445   1.916       .  S
C434        H437   1.083       .  S
C436        C438   1.400       .  A
C436        C442   1.404       .  A
C438        C439   1.402       .  A
C438        H443   1.084       .  S
C439        C440   1.422       .  A
C439       Br447   1.924       .  S
C440        C441   1.412       .  A
C441        C442   1.402       .  A
C441        H444   1.083       .  S
C442       Br448   1.919       .  S
C449        C450   1.409       .  A
C449        C454   1.405       .  A
C450        C451   1.393       .  A
C450       Br466   1.921       .  S
C451        C452   1.401       .  A
C451        H455   1.084       .  S
C452        C456   1.464       .  S
C452        C453   1.405       .  A
C453        C454   1.391       .  A
C453       Br465   1.920       .  S
C454        H457   1.084       .  S
C456        C458   1.403       .  A
C456        C462   1.404       .  A
C458        C459   1.395       .  A
C458        H463   1.084       .  S
C459        C460   1.405       .  A
C459       Br467   1.919       .  S
C460        C461   1.401       .  A
C461        C462   1.390       .  A
C461        H464   1.083       .  S
C462       Br468   1.920       .  S
C469        C470   1.410       .  A
C469        C474   1.407       .  A
C470        C471   1.392       .  A
C470       Br486   1.920       .  S
C471        C472   1.400       .  A
C471        H475   1.084   1_655  S
C472        C476   1.461   1_655  S
C472        C473   1.403       .  A
C473        C474   1.390       .  A
C473       Br485   1.921       .  S
C474        H477   1.083       .  S
C476        C478   1.395       .  A
C476        C482   1.407       .  A
C478        C479   1.388       .  A
C478        H483   1.084       .  S
C479        C480   1.415       .  A
C479       Br487   1.923       .  S
C480        C481   1.402       .  A
C481        C482   1.394       .  A
C481        H484   1.084       .  S
C482       Br488   1.920       .  S
C489        C490   1.415   1_565  A
C489        C494   1.406       .  A
C490        C491   1.395       .  A
C490       Br506   1.923       .  S
C491        C492   1.399   1_545  A
C491        H495   1.084       .  S
C492        C496   1.470   1_565  S
C492        C493   1.406       .  A
C493        C494   1.396       .  A
C493       Br505   1.919       .  S
C494        H497   1.084       .  S
C496        C498   1.398       .  A
C496        C502   1.404   1_545  A
C498        C499   1.397       .  A
C498        H503   1.084       .  S
C499        C500   1.420       .  A
C499       Br507   1.923       .  S
C500        C501   1.409   1_545  A
C501        C502   1.394       .  A
C501        H504   1.083       .  S
C502       Br508   1.920       .  S
C509        C510   1.416       .  A
C509        C514   1.406   1_545  A
C510        C511   1.397       .  A
C510       Br526   1.923       .  S
C511        C512   1.399       .  A
C511        H515   1.084       .  S
C512        C516   1.465       .  S
C512        C513   1.403   1_545  A
C513        C514   1.393       .  A
C513       Br525   1.920       .  S
C514        H517   1.083       .  S
C516        C518   1.397   1_545  A
C516        C522   1.403       .  A
C518        C519   1.394       .  A
C518        H523   1.084       .  S
C519        C520   1.418   1_565  A
C519       Br527   1.924       .  S
C520        C521   1.408       .  A
C521        C522   1.395       .  A
C521        H524   1.083       .  S
C522       Br528   1.918       .  S
C529        C530   1.422       .  A
C529        C534   1.409       .  A
C530        C531   1.398       .  A
C530       Br546   1.924       .  S
C531        C532   1.399       .  A
C531        H535   1.084       .  S
C532        C536   1.489       .  S
C532        C533   1.409       .  A
C533        C534   1.407       .  A
C533       Br545   1.918       .  S
C534        H537   1.083       .  S
C536        C538   1.405       .  A
C536        C542   1.409       .  A
C538        C539   1.405       .  A
C538        H543   1.083       .  S
C539        C540   1.414       .  A
C539       Br547   1.920       .  S
C540        C541   1.407       .  A
C541        C542   1.400       .  A
C541        H544   1.084       .  S
C542       Br548   1.919       .  S
C549        C550   1.418       .  A
C549        C554   1.409       .  A
C550        C551   1.401       .  A
C550       Br566   1.922       .  S
C551        C552   1.401       .  A
C551        H555   1.084       .  S
C552        C556   1.483       .  S
C552        C553   1.407       .  A
C553        C554   1.402       .  A
C553       Br565   1.919       .  S
C554        H557   1.083       .  S
C556        C558   1.402       .  A
C556        C562   1.406       .  A
C558        C559   1.403       .  A
C558        H563   1.084       .  S
C559        C560   1.417       .  A
C559       Br567   1.920       .  S
C560        C561   1.409       .  A
C561        C562   1.400       .  A
C561        H564   1.083       .  S
C562       Br568   1.919       .  S
C569        C570   1.417       .  A
C569        C574   1.405   1_655  A
C570        C571   1.402       .  A
C570       Br586   1.919       .  S
C571        C572   1.402       .  A
C571        H575   1.083       .  S
C572        C576   1.487       .  S
C572        C573   1.411   1_655  A
C573        C574   1.400       .  A
C573       Br585   1.920   1_565  S
C574        H577   1.084   1_565  S
C576        C578   1.403   1_565  A
C576        C582   1.411       .  A
C578        C579   1.399       .  A
C578        H583   1.084       .  S
C579        C580   1.412   1_545  A
C579       Br587   1.920       .  S
C580        C581   1.406       .  A
C581        C582   1.403       .  A
C581        H584   1.082       .  S
C582       Br588   1.919       .  S
C589        C590   1.412       .  A
C589        C594   1.408   1_565  A
C590        C591   1.398       .  A
C590       Br606   1.920       .  S
C591        C592   1.402   1_565  A
C591        H595   1.084       .  S
C592        C596   1.488       .  S
C592        C593   1.410       .  A
C593        C594   1.406       .  A
C593       Br605   1.918       .  S
C594        H597   1.083       .  S
C596        C598   1.405       .  A
C596        C602   1.407   1_545  A
C598        C599   1.406   1_455  A
C598        H603   1.083   1_455  S
C599        C600   1.419   1_655  A
C599       Br607   1.920       .  S
C600        C601   1.410   1_545  A
C601        C602   1.398       .  A
C601        H604   1.083       .  S
C602       Br608   1.920       .  S
C609        C610   1.411       .  A
C609        C614   1.404       .  A
C610        C611   1.394       .  A
C610       Br626   1.921       .  S
C611        C612   1.399       .  A
C611        H615   1.084       .  S
C612        C616   1.462       .  S
C612        C613   1.403       .  A
C613        C614   1.393       .  A
C613       Br625   1.918       .  S
C614        H617   1.084       .  S
C616        C618   1.396       .  A
C616        C622   1.405       .  A
C618        C619   1.394       .  A
C618        H623   1.084       .  S
C619        C620   1.415       .  A
C619       Br627   1.922       .  S
C620        C621   1.403   1_565  A
C621        C622   1.393   1_545  A
C621        H624   1.084       .  S
C622       Br628   1.920   1_565  S
C629        C630   1.404       .  A
C629        C634   1.403   1_545  A
C630        C631   1.392       .  A
C630       Br646   1.919       .  S
C631        C632   1.401       .  A
C631        H635   1.084       .  S
C632        C636   1.456   1_545  S
C632        C633   1.402   1_545  A
C633        C634   1.390       .  A
C633       Br645   1.919       .  S
C634        H637   1.084       .  S
C636        C638   1.400       .  A
C636        C642   1.401   1_565  A
C638        C639   1.393       .  A
C638        H643   1.084       .  S
C639        C640   1.407       .  A
C639       Br647   1.920       .  S
C640        C641   1.403   1_565  A
C641        C642   1.390       .  A
C641        H644   1.084       .  S
C642       Br648   1.919       .  S
C649        C650   1.423       .  A
C649        C654   1.411       .  A
C650        C651   1.401       .  A
C650       Br666   1.922       .  S
C651        C652   1.400       .  A
C651        H655   1.084       .  S
C652        C656   1.491       .  S
C652        C653   1.408       .  A
C653        C654   1.405       .  A
C653       Br665   1.918       .  S
C654        H657   1.083       .  S
C656        C658   1.405       .  A
C656        C662   1.409       .  A
C658        C659   1.404       .  A
C658        H663   1.083       .  S
C659        C660   1.413       .  A
C659       Br667   1.918       .  S
C660        C661   1.407       .  A
C661        C662   1.401       .  A
C661        H664   1.084       .  S
C662       Br668   1.919       .  S
C669        C670   1.411       .  A
C669        C674   1.406       .  A
C670        C671   1.405       .  A
C670       Br686   1.918       .  S
C671        C672   1.408       .  A
C671        H675   1.083       .  S
C672        C676   1.494       .  S
C672        C673   1.412       .  A
C673        C674   1.397       .  A
C673       Br685   1.921       .  S
C674        H677   1.084       .  S
C676        C678   1.401       .  A
C676        C682   1.412       .  A
C678        C679   1.399       .  A
C678        H683   1.084       .  S
C679        C680   1.423       .  A
C679       Br687   1.925       .  S
C680        C681   1.410       .  A
C681        C682   1.404       .  A
C681        H684   1.083       .  S
C682       Br688   1.920       .  S
