geometry optimzed in LAMMPS
_audit_creation_date              2020-11-30 
_audit_creation_method            'lammps2cif' 
_symmetry_space_group_name_H-M    'P1' 
_symmetry_Int_Tables_number       1 
_symmetry_cell_setting            triclinic 
loop_ 
_symmetry_equiv_pos_as_xyz 
  x,y,z 
_cell_length_a                    40.2855492 
_cell_length_b                    40.28550632971933 
_cell_length_c                    32.92747115475554 
_cell_angle_alpha                 89.99962171906124 
_cell_angle_beta                  90.000965576763 
_cell_angle_gamma                 120.29883828382135 
loop_ 
_atom_site_label 
_atom_site_type_symbol 
_atom_site_fract_x 
_atom_site_fract_y 
_atom_site_fract_z 
_atom_site_charge 
Zr1        Zr  0.26087138  0.83548852  0.22426521     2.17500
O2          O  0.31951643  0.88769776  0.25407946    -0.51100
O3          O  0.24222881  0.81962361  0.29543388    -0.74300
O4          O  0.25874871  0.89480964  0.23302033    -0.81000
O5          O  0.31263083  0.77938513  0.20159525    -0.82800
O6          O  0.20775553  0.89058911  0.19864349    -0.78400
O7          O  0.32059713  0.83390396  0.23144418    -0.90100
O8          O  0.18380603  0.76504748  0.29904367    -0.76000
O9          O  0.19323264  0.81062848  0.22623228    -0.85500
O10         O  0.23179127  0.76738276  0.23018640    -0.85200
O11         O  0.24618705  0.85574703  0.16120643    -0.72000
O12         O  0.28005972  0.81477875  0.16495072    -0.84100
Zr13       Zr  0.16643904  0.74074661  0.10929974     2.26400
Zr14       Zr  0.17781112  0.82955408  0.16318669     2.06300
Zr15       Zr  0.24983576  0.74653884  0.17044891     2.10000
Zr16       Zr  0.16423073  0.74249132  0.23062605     1.78800
O17         O  0.29728032  0.73964488  0.13121012    -0.92900
O18         O  0.11039615  0.74557090  0.26015620    -0.40700
O19         O  0.18192261  0.72048669  0.17153868    -0.77300
O20         O  0.14712131  0.76107409  0.16892770    -0.96000
O21         O  0.19617950  0.80879425  0.10370106    -0.89300
O22         O  0.23400686  0.76506562  0.10771651    -0.92200
C23         C  0.21338310  0.79339785  0.31512713     1.01600
C24         C  0.33237418  0.81074256  0.22132082     1.14500
C25         C  0.23743619  0.90831348  0.22139932     1.05300
O26         O  0.12913793  0.83245109  0.20436601    -0.94300
O27         O  0.11754102  0.80051541  0.12568180    -0.90100
O28         O  0.11282668  0.74959048  0.09043361    -0.83200
C29         C  0.10013073  0.77171312  0.10155766     1.11900
O30         O  0.32691654  0.89045601  0.10832770    -0.96300
Zr31       Zr  0.26358432  0.83295911  0.10248337     1.88900
O32         O  0.18230699  0.75626530  0.03769444    -0.72900
O33         O  0.18374577  0.87765923  0.11439536    -0.52200
O34         O  0.26510432  0.88808761  0.07002300    -0.96900
O35         O  0.31463647  0.82517763  0.07252388    -0.54100
O36         O  0.24044784  0.81145418  0.03424692    -0.73500
C37         C  0.21060909  0.78331343  0.01808025     0.98900
O38         O  0.10461700  0.68113519  0.10159061    -0.62300
O39         O  0.24357695  0.69954779  0.22113687    -0.57100
O40         O  0.17233672  0.68481187  0.09284394    -0.93800
O41         O  0.21913221  0.68662407  0.13331268    -0.92200
O42         O  0.16533163  0.68910149  0.26396786    -0.92500
O43         O  0.10292506  0.68281819  0.22420423    -0.91300
C44         C  0.19240397  0.67069215  0.10674490     1.17700
H45         H  0.24032743  0.76031569  0.25438418     0.33700
H46         H  0.11952084  0.74957582  0.16957053     0.44500
H47         H  0.24092539  0.75459600  0.08501176     0.38000
H48         H  0.25972508  0.88340019  0.15884513     0.34500
H49         H  0.10435994  0.73051502  0.28561032     0.26300
H50         H  0.16992588  0.88952790  0.12703469     0.32300
H51         H  0.27620703  0.88970504  0.04276722     0.38200
H52         H  0.15043521  0.68479442  0.28929177     0.32600
H53         H  0.25186926  0.68325814  0.20700192     0.31500
H54         H  0.30264002  0.72223437  0.14754298     0.33200
H55         H  0.30163762  0.80353906  0.05316843     0.32100
H56         H  0.10221077  0.67482186  0.19563539     0.36100
H57         H  0.10685965  0.66131529  0.11711973     0.28900
H58         H  0.31129282  0.89591118  0.27857751     0.33100
H59         H  0.33621288  0.89816897  0.08014248     0.36000
H60         H  0.26421108  0.71428359  0.24116131     0.28600
H61         H  0.08589941  0.68466781  0.11776163     0.41400
H62         H  0.13845036  0.83502562  0.23266010     0.31500
H63         H  0.12153007  0.77252373  0.26932048     0.39100
H64         H  0.32332634  0.81489693  0.09484228     0.31000
H65         H  0.21118514  0.89798747  0.11538856     0.31000
H66         H  0.32870991  0.90949463  0.23484703     0.31300
Zr67       Zr  0.16524720  0.73972892  0.60858375     2.17500
O68         O  0.11239456  0.68136797  0.57898870    -0.51100
O69         O  0.18172254  0.75916549  0.53749418    -0.74300
O70         O  0.10587855  0.74182725  0.60040975    -0.81000
O71         O  0.22136642  0.68758843  0.63107332    -0.82800
O72         O  0.11015172  0.79279895  0.63490642    -0.78400
O73         O  0.16712707  0.68006927  0.60094210    -0.90100
O74         O  0.23594314  0.81793355  0.53425847    -0.76000
O75         O  0.19004128  0.80739979  0.60715020    -0.85500
O76         O  0.23329125  0.76883591  0.60268150    -0.85200
O77         O  0.14519490  0.75446801  0.67183186    -0.72000
O78         O  0.18564336  0.72003815  0.66780215    -0.84100
Zr79       Zr  0.25987096  0.83349224  0.72420938     2.26400
Zr80       Zr  0.17133119  0.82289592  0.67034318     2.06300
Zr81       Zr  0.25394043  0.75035458  0.66224851     2.10000
Zr82       Zr  0.25815640  0.83642919  0.60284919     1.78800
O83         O  0.26162698  0.70341768  0.70153143    -0.92900
O84         O  0.25378042  0.89026485  0.57535146    -0.40700
O85         O  0.27978350  0.81818371  0.66174341    -0.77300
O86         O  0.23984862  0.85342446  0.66479470    -0.96000
O87         O  0.19181112  0.80401556  0.72973829    -0.89300
O88         O  0.23544530  0.76591550  0.72516080    -0.92200
C89         C  0.20785761  0.78828844  0.51797619     1.01600
C90         C  0.19008539  0.66804190  0.61117238     1.14500
C91         C  0.09233176  0.76304165  0.61223488     1.05300
O92         O  0.16938749  0.87273358  0.63028289    -0.94300
O93         O  0.20084311  0.88295743  0.70835451    -0.90100
O94         O  0.25154154  0.88725915  0.74367911    -0.83200
C95         C  0.22961109  0.90017963  0.73256376     1.11900
O96         O  0.10987095  0.67337302  0.72528874    -0.96300
Zr97       Zr  0.16762755  0.73658536  0.73043911     1.88900
O98         O  0.24466753  0.81723629  0.79579018    -0.72900
O99         O  0.12330999  0.81798135  0.71870054    -0.52200
O100        O  0.11248951  0.73514738  0.76274176    -0.96900
O101        O  0.17568984  0.68579374  0.76065401    -0.54100
O102        O  0.18900561  0.75951702  0.79877937    -0.73500
C103        C  0.21732268  0.78901967  0.81519407     0.98900
O104        O  0.32073671  0.89415665  0.73175741    -0.62300
O105        O  0.30122395  0.75755589  0.61143357    -0.57100
O106        O  0.31566158  0.82743331  0.74037541    -0.93800
O107        O  0.31403254  0.78128164  0.69900309    -0.92200
O108        O  0.31107889  0.83447301  0.56947426    -0.92500
O109        O  0.31883997  0.89687672  0.60834322    -0.91300
C110        C  0.32988992  0.80767872  0.72591550     1.17700
H111        H  0.24042184  0.76046126  0.57840449     0.33700
H112        H  0.25150621  0.88104559  0.66433740     0.44500
H113        H  0.24584630  0.75879953  0.74776721     0.38000
H114        H  0.11755139  0.74094596  0.67425984     0.34500
H115        H  0.26883344  0.89719391  0.54984355     0.26300
H116        H  0.11191880  0.83216385  0.70584861     0.32300
H117        H  0.11142249  0.72499132  0.79039119     0.38200
H118        H  0.31567688  0.84948638  0.54418966     0.32600
H119        H  0.31875125  0.75105459  0.62588251     0.31500
H120        H  0.27951061  0.69861618  0.68536097     0.33200
H121        H  0.19660740  0.69876512  0.78082064     0.32100
H122        H  0.32493504  0.89962264  0.63770977     0.36100
H123        H  0.33915527  0.89220016  0.71341139     0.28900
H124        H  0.10387468  0.68970066  0.55480930     0.33100
H125        H  0.10283216  0.66397331  0.75354082     0.36000
H126        H  0.28703980  0.73602057  0.59220047     0.28600
H127        H  0.31699373  0.91411160  0.71856934     0.41400
H128        H  0.16277678  0.86212215  0.60242795     0.31500
H129        H  0.22675932  0.87886995  0.56630433     0.39100
H130        H  0.18702750  0.67783428  0.73873229     0.31000
H131        H  0.10263700  0.79067743  0.71774088     0.31000
H132        H  0.09087497  0.67212027  0.59859761     0.31300
Zr133      Zr  0.58374653  0.74241797  0.39255213     2.17500
O134        O  0.57789831  0.68180149  0.41453560    -0.51100
O135        O  0.58197304  0.75839177  0.46389887    -0.74300
O136        O  0.64547157  0.74747718  0.40787279    -0.81000
O137        O  0.47678175  0.68810083  0.36409609    -0.82800
O138        O  0.69373680  0.80031946  0.37678972    -0.78400
O139        O  0.52187800  0.68360360  0.40159558    -0.90100
O140        O  0.58135756  0.81444158  0.46725447    -0.76000
O141        O  0.62401132  0.81034591  0.39836130    -0.85500
O142        O  0.54173160  0.76788406  0.39388994    -0.85200
O143        O  0.62395833  0.76151060  0.33299634    -0.72000
O144        O  0.54874606  0.72320962  0.32960546    -0.84100
Zr145      Zr  0.58804829  0.83856542  0.27707138     2.26400
Zr146      Zr  0.66375385  0.83007293  0.33880490     2.06300
Zr147      Zr  0.50779294  0.75013849  0.33076191     2.10000
Zr148      Zr  0.58185974  0.83567913  0.39858905     1.78800
O149        O  0.46194080  0.70312031  0.28306231    -0.92900
O150        O  0.63614461  0.89070988  0.43088221    -0.40700
O151        O  0.54720403  0.81837183  0.33586968    -0.77300
O152        O  0.62266289  0.85713212  0.34031158    -0.96000
O153        O  0.62954948  0.81242631  0.27568487    -0.89300
O154        O  0.54749165  0.77055605  0.27159813    -0.92200
C155        C  0.58130556  0.78560134  0.48352106     1.01600
C156        C  0.48749717  0.67037213  0.38829345     1.14500
C157        C  0.68095645  0.77004654  0.39882213     1.05300
O158        O  0.71021986  0.87836353  0.38509714    -0.94300
O159        O  0.69591325  0.89190628  0.30446121    -0.90100
O160        O  0.65142008  0.89456236  0.26392767    -0.83200
C161        C  0.68545348  0.90874523  0.27869304     1.11900
O162        O  0.58896486  0.68418182  0.27518395    -0.96300
Zr163      Zr  0.58893891  0.74460830  0.27059503     1.88900
O164        O  0.59140555  0.82449224  0.20536459    -0.72900
O165        O  0.71239035  0.83091174  0.29419104    -0.52200
O166        O  0.64792537  0.75008013  0.24398789    -0.96900
O167        O  0.53477613  0.69252965  0.23446194    -0.54100
O168        O  0.59372527  0.76921046  0.20253837    -0.73500
C169        C  0.59349805  0.79785743  0.18604325     0.98900
O170        O  0.58848749  0.89930241  0.26870262    -0.62300
O171        O  0.45861296  0.74868013  0.37500947    -0.57100
O172        O  0.52611258  0.83156688  0.25797880    -0.93800
O173        O  0.47931323  0.78187076  0.29442091    -0.92200
O174        O  0.52330900  0.82841039  0.42859683    -0.92500
O175        O  0.57756931  0.89373996  0.39370752    -0.91300
C176        C  0.49114188  0.81020393  0.26974312     1.17700
H177        H  0.52405951  0.75771892  0.41647681     0.33700
H178        H  0.63762025  0.88479339  0.34231411     0.44500
H179        H  0.53186061  0.76377366  0.24738683     0.38000
H180        H  0.63929970  0.74930609  0.33216010     0.34500
H181        H  0.62499316  0.89659058  0.45470164     0.26300
H182        H  0.73660965  0.84449953  0.30990537     0.32300
H183        H  0.64232942  0.74225920  0.21514994     0.38200
H184        H  0.53145083  0.84176306  0.45509930     0.32600
H185        H  0.46377014  0.77545154  0.37525097     0.31500
H186        H  0.43668936  0.69935973  0.29154102     0.33200
H187        H  0.52474441  0.70517707  0.21651291     0.32100
H188        H  0.58333197  0.90162289  0.36489887     0.36100
H189        H  0.56572661  0.89622074  0.28354303     0.28900
H190        H  0.59060706  0.68698216  0.44140669     0.33100
H191        H  0.59003460  0.67660623  0.24681519     0.36000
H192        H  0.43431698  0.73407236  0.35961144     0.28600
H193        H  0.61013806  0.91860475  0.28531461     0.41400
H194        H  0.70379318  0.86593720  0.41214971     0.31500
H195        H  0.65162848  0.88030623  0.44270656     0.39100
H196        H  0.51464308  0.67951652  0.25542530     0.31000
H197        H  0.70637014  0.80387345  0.29319664     0.31000
H198        H  0.59444957  0.67707862  0.39600615     0.31300
Zr199      Zr  0.58793832  0.73972489  0.89224300     2.17500
O200        O  0.58399369  0.68188794  0.92075924    -0.51100
O201        O  0.59182724  0.75826539  0.96382112    -0.74300
O202        O  0.64999049  0.74301108  0.89835624    -0.81000
O203        O  0.47861787  0.68664092  0.87424736    -0.82800
O204        O  0.69610650  0.79433708  0.86339146    -0.78400
O205        O  0.52682708  0.67973879  0.90126150    -0.90100
O206        O  0.59479759  0.81602395  0.96753370    -0.76000
O207        O  0.63054343  0.80751093  0.89326415    -0.85500
O208        O  0.54826482  0.76761506  0.89950412    -0.85200
O209        O  0.62148733  0.75462787  0.82811888    -0.72000
O210        O  0.54625702  0.71905894  0.83408574    -0.84100
Zr211      Zr  0.58339025  0.83238518  0.77836900     2.26400
Zr212      Zr  0.66344840  0.82318784  0.82917770     2.06300
Zr213      Zr  0.50772216  0.74837137  0.84083945     2.10000
Zr214      Zr  0.59070917  0.83528439  0.89947249     1.78800
O215        O  0.45586244  0.70074698  0.79864536    -0.92900
O216        O  0.64903920  0.88898936  0.92770539    -0.40700
O217        O  0.54920812  0.81650659  0.84168889    -0.77300
O218        O  0.62496147  0.85279428  0.83671821    -0.96000
O219        O  0.62241694  0.80379202  0.77090272    -0.89300
O220        O  0.54075086  0.76462370  0.77736707    -0.92200
C221        C  0.59419015  0.78689499  0.98359297     1.01600
C222        C  0.49130652  0.66748087  0.89304760     1.14500
C223        C  0.68462720  0.76458989  0.88593057     1.05300
O224        O  0.71586844  0.87280631  0.86910229    -0.94300
O225        O  0.69314293  0.88338483  0.79146802    -0.90100
O226        O  0.64529057  0.88663238  0.75807009    -0.83200
C227        C  0.68060530  0.90015964  0.76810096     1.11900
O228        O  0.57597399  0.67386722  0.77488687    -0.96300
Zr229      Zr  0.57962707  0.73610260  0.77061565     1.88900
O230        O  0.58044360  0.81558608  0.70665798    -0.72900
O231        O  0.70561005  0.81854827  0.77929154    -0.52200
O232        O  0.63354739  0.73741558  0.73556562    -0.96900
O233        O  0.52089095  0.68379223  0.74112218    -0.54100
O234        O  0.57740111  0.75768152  0.70271371    -0.73500
C235        C  0.57842808  0.78715991  0.68679316     0.98900
O236        O  0.58290974  0.89267086  0.77012972    -0.62300
O237        O  0.46443216  0.75045943  0.89108852    -0.57100
O238        O  0.52062756  0.82563800  0.76508555    -0.93800
O239        O  0.47683195  0.77878795  0.80670373    -0.92200
O240        O  0.53650898  0.83313937  0.93472563    -0.92500
O241        O  0.59085543  0.89570350  0.89536927    -0.91300
C242        C  0.48679503  0.80547728  0.78024868     1.17700
H243        H  0.53301330  0.75895605  0.92399719     0.33700
H244        H  0.64086992  0.88044821  0.83717690     0.44500
H245        H  0.52268835  0.75732124  0.75519904     0.38000
H246        H  0.63580806  0.74148872  0.82504426     0.34500
H247        H  0.64083002  0.89510328  0.95362444     0.26300
H248        H  0.73177570  0.83419841  0.79076032     0.32300
H249        H  0.62379086  0.72734441  0.70802579     0.38200
H250        H  0.54704306  0.84585055  0.96115498     0.32600
H251        H  0.47076098  0.77761014  0.89135399     0.31500
H252        H  0.43213710  0.69313400  0.81437795     0.33200
H253        H  0.50973344  0.69634514  0.72469239     0.32100
H254        H  0.58889382  0.89956768  0.86596741     0.36100
H255        H  0.56290430  0.89096883  0.78890450     0.28900
H256        H  0.60097119  0.69038988  0.94490287     0.33100
H257        H  0.57484842  0.66530563  0.74646665     0.36000
H258        H  0.43865800  0.73629147  0.87840364     0.28600
H259        H  0.60697796  0.91312307  0.78253658     0.41400
H260        H  0.71035898  0.86321661  0.89739725     0.31500
H261        H  0.66489254  0.87775249  0.93603991     0.39100
H262        H  0.50307180  0.67236222  0.76437660     0.31000
H263        H  0.70007087  0.79169641  0.78121369     0.31000
H264        H  0.59661327  0.67336813  0.90086543     0.31300
Zr265      Zr  0.25933386  0.41231357  0.94168637     2.17500
O266        O  0.31682207  0.41686733  0.91134372    -0.51100
O267        O  0.24016157  0.40861943  0.87036383    -0.74300
O268        O  0.25658931  0.35048174  0.93528641    -0.81000
O269        O  0.31307329  0.52126664  0.96046172    -0.82800
O270        O  0.20548332  0.30430615  0.97046868    -0.78400
O271        O  0.31949898  0.47309926  0.93257477    -0.90100
O272        O  0.18294579  0.40681092  0.86675572    -0.76000
O273        O  0.19151006  0.36984541  0.94050083    -0.85500
O274        O  0.23155796  0.45215018  0.93495715    -0.85200
O275        O  0.24437630  0.37856613  0.00569528    -0.72000
O276        O  0.28013878  0.45359301  0.00021249    -0.84100
Zr277      Zr  0.16701017  0.41664778  0.05603669     2.26400
Zr278      Zr  0.17582060  0.33650846  0.00433446     2.06300
Zr279      Zr  0.25121841  0.49250256  0.99374892     2.10000
Zr280      Zr  0.16378134  0.40983655  0.93513104     1.78800
O281        O  0.29956871  0.54486514  0.03489798    -0.92900
O282        O  0.10991448  0.35162027  0.90688255    -0.40700
O283        O  0.18303140  0.45125813  0.99299352    -0.77300
O284        O  0.14646843  0.37527525  0.99759226    -0.96000
O285        O  0.19525741  0.37727169  0.06290025    -0.89300
O286        O  0.23481428  0.45928194  0.05718058    -0.92200
C287        C  0.21182267  0.40694582  0.85064235     1.01600
C288        C  0.33198894  0.50856656  0.94117478     1.14500
C289        C  0.23514996  0.31581377  0.94774680     1.05300
O290        O  0.12612791  0.28540076  0.96306003    -0.94300
O291        O  0.11566602  0.30706380  0.04214472    -0.90100
O292        O  0.11304382  0.35474414  0.07673129    -0.83200
C293        C  0.09922455  0.31952034  0.06611523     1.11900
O294        O  0.32450643  0.42226991  0.06000989    -0.96300
Zr295      Zr  0.26289558  0.41998142  0.06359339     1.88900
O296        O  0.18352523  0.41985600  0.12773662    -0.72900
O297        O  0.17858371  0.29283992  0.05363096    -0.52200
O298        O  0.26109228  0.36551332  0.09794709    -0.96900
O299        O  0.31599218  0.47862376  0.09231138    -0.54100
O300        O  0.24095798  0.42188885  0.13152742    -0.73500
C301        C  0.21173421  0.42136103  0.14751726     0.98900
O302        O  0.10603337  0.41582009  0.06336848    -0.62300
O303        O  0.24903420  0.53566993  0.94337950    -0.57100
O304        O  0.17371372  0.47925461  0.06982762    -0.93800
O305        O  0.22046352  0.52300369  0.02806135    -0.92200
O306        O  0.16468033  0.46363025  0.90037272    -0.92500
O307        O  0.10291014  0.40865935  0.94088135    -0.91300
C308        C  0.19379353  0.51304019  0.05455228     1.17700
H309        H  0.24018066  0.46750262  0.91052987     0.33700
H310        H  0.11880354  0.35947465  0.99719882     0.44500
H311        H  0.24216850  0.47727296  0.07942810     0.38000
H312        H  0.25753840  0.36426403  0.00866763     0.34500
H313        H  0.10300516  0.36013068  0.88166698     0.26300
H314        H  0.16526925  0.26732886  0.04029216     0.32300
H315        H  0.26995137  0.37452165  0.12597931     0.38200
H316        H  0.15047081  0.45262887  0.87473893     0.32600
H317        H  0.22238571  0.53079778  0.94465504     0.31500
H318        H  0.30575373  0.56852765  0.01973832     0.33200
H319        H  0.30382090  0.49048134  0.10823137     0.32100
H320        H  0.10205621  0.41589604  0.96942978     0.36100
H321        H  0.10823816  0.43696183  0.04609994     0.28900
H322        H  0.30787987  0.39975178  0.88731154     0.33100
H323        H  0.33255904  0.42268080  0.08851414     0.36000
H324        H  0.26495611  0.56170751  0.95504255     0.28600
H325        H  0.08649949  0.39252514  0.04894567     0.41400
H326        H  0.13746207  0.28933669  0.93556479     0.31500
H327        H  0.12127532  0.33622993  0.89729118     0.39100
H328        H  0.32774069  0.49597714  0.06875777     0.31000
H329        H  0.20596206  0.29995739  0.05435843     0.31000
H330        H  0.32603602  0.40453590  0.93080671     0.31300
Zr331      Zr  0.25704670  0.41588309  0.44137526     2.17500
O332        O  0.31773132  0.42119569  0.42055848    -0.51100
O333        O  0.24126420  0.41809890  0.37011942    -0.74300
O334        O  0.25152930  0.35418622  0.42525503    -0.81000
O335        O  0.31076627  0.52285392  0.46852466    -0.82800
O336        O  0.19955924  0.30595107  0.45753772    -0.78400
O337        O  0.31564406  0.47774892  0.43151818    -0.90100
O338        O  0.18450228  0.41732145  0.36674784    -0.76000
O339        O  0.18914667  0.37508647  0.43587465    -0.85500
O340        O  0.23095660  0.45735223  0.43954626    -0.85200
O341        O  0.23844199  0.37593262  0.50115806    -0.72000
O342        O  0.27634549  0.45116835  0.50411479    -0.84100
Zr343      Zr  0.16116446  0.41169210  0.55690363     2.26400
Zr344      Zr  0.16988389  0.33582796  0.49572672     2.06300
Zr345      Zr  0.24895083  0.49168323  0.50239369     2.10000
Zr346      Zr  0.16316165  0.41665970  0.43534143     1.78800
O347        O  0.29677393  0.53822221  0.54887474    -0.92900
O348        O  0.10850829  0.36229988  0.40261699    -0.40700
O349        O  0.18070984  0.45198709  0.49765670    -0.77300
O350        O  0.14228763  0.37643096  0.49401425    -0.96000
O351        O  0.18749930  0.37042187  0.55854896    -0.89300
O352        O  0.22911450  0.45254490  0.56193097    -0.92200
C353        C  0.21374140  0.41816610  0.35052185     1.01600
C354        C  0.32866936  0.51218026  0.44453638     1.14500
C355        C  0.22936525  0.31876831  0.43478123     1.05300
O356        O  0.12164381  0.28839644  0.45015931    -0.94300
O357        O  0.10821272  0.30379350  0.53034350    -0.90100
O358        O  0.10582622  0.34822829  0.57124293    -0.83200
C359        C  0.09161124  0.31417761  0.55649880     1.11900
O360        O  0.31591007  0.41184786  0.55855840    -0.96300
Zr361      Zr  0.25523655  0.41127151  0.56340155     1.88900
O362        O  0.17587601  0.40905336  0.62856155    -0.72900
O363        O  0.16962919  0.28794862  0.54104805    -0.52200
O364        O  0.24931792  0.35258220  0.59154515    -0.96900
O365        O  0.30683068  0.46561070  0.59974847    -0.54100
O366        O  0.23112126  0.40671331  0.63157655    -0.73500
C367        C  0.20248217  0.40699120  0.64797631     0.98900
O368        O  0.10026249  0.41082698  0.56526636    -0.62300
O369        O  0.24960710  0.54088191  0.45887847    -0.57100
O370        O  0.16805385  0.47343690  0.57643483    -0.93800
O371        O  0.21767406  0.52007235  0.53978236    -0.92200
O372        O  0.16921858  0.47464379  0.40527355    -0.92500
O373        O  0.10445048  0.41974260  0.44042883    -0.91300
C374        C  0.18949242  0.50837802  0.56465249     1.17700
H375        H  0.24089064  0.47490983  0.41684566     0.33700
H376        H  0.11461799  0.36132872  0.49223580     0.44500
H377        H  0.23598763  0.46839319  0.58598222     0.38000
H378        H  0.25078570  0.36071217  0.50188842     0.34500
H379        H  0.10353934  0.37327077  0.37802038     0.26300
H380        H  0.15424631  0.26322159  0.52657881     0.32300
H381        H  0.26095746  0.35981191  0.61893809     0.38200
H382        H  0.15392867  0.46584651  0.37994018     0.32600
H383        H  0.22267593  0.53525206  0.45869704     0.31500
H384        H  0.30371387  0.56358869  0.53726823     0.33200
H385        H  0.29392710  0.47471996  0.61853538     0.32100
H386        H  0.10052131  0.42088511  0.46996077     0.36100
H387        H  0.10324977  0.43359266  0.55051623     0.28900
H388        H  0.31292008  0.40866901  0.39361274     0.33100
H389        H  0.32357638  0.41080532  0.58689328     0.36000
H390        H  0.26383635  0.56503489  0.47459405     0.28600
H391        H  0.08115828  0.38914096  0.54854263     0.41400
H392        H  0.13216815  0.29713761  0.42254313     0.31500
H393        H  0.11883715  0.34632202  0.39201390     0.39100
H394        H  0.31902561  0.48618589  0.57909939     0.31000
H395        H  0.19628166  0.29280444  0.54026309     0.31000
H396        H  0.32191693  0.40436971  0.43922822     0.31300
Zr397      Zr  0.41912735  0.25312871  0.39321081     2.17500
O398        O  0.42333923  0.31123586  0.42145002    -0.51100
O399        O  0.41554204  0.23438612  0.46465791    -0.74300
O400        O  0.35704043  0.24980198  0.39977790    -0.81000
O401        O  0.52823180  0.30616287  0.37423524    -0.82800
O402        O  0.31108052  0.19897681  0.36407094    -0.78400
O403        O  0.48030560  0.31300233  0.40219871    -0.90100
O404        O  0.41254244  0.17659162  0.46815507    -0.76000
O405        O  0.37640960  0.18532282  0.39417473    -0.85500
O406        O  0.45862377  0.22498460  0.40027510    -0.85200
O407        O  0.38561417  0.23833998  0.32910653    -0.72000
O408        O  0.46072868  0.27348885  0.33500547    -0.84100
Zr409      Zr  0.42338312  0.16051078  0.27873155     2.26400
Zr410      Zr  0.34348406  0.16975433  0.33008961     2.06300
Zr411      Zr  0.49914624  0.24404339  0.34162240     2.10000
Zr412      Zr  0.41610982  0.15732857  0.39997000     1.78800
O413        O  0.55230223  0.29123833  0.30043641    -0.92900
O414        O  0.35776470  0.10337145  0.42781835    -0.40700
O415        O  0.45747149  0.17594519  0.34208131    -0.77300
O416        O  0.38192570  0.14003383  0.33720299    -0.96000
O417        O  0.38441902  0.18921096  0.27166344    -0.89300
O418        O  0.46623650  0.22822779  0.27801127    -0.92200
C419        C  0.41324947  0.20573337  0.48431281     1.01600
C420        C  0.51572683  0.32527344  0.39347719     1.14500
C421        C  0.32245579  0.22841005  0.38707144     1.05300
O422        O  0.29091283  0.12040041  0.37018471    -0.94300
O423        O  0.31358991  0.10933883  0.29273775    -0.90100
O424        O  0.36128248  0.10631976  0.25873292    -0.83200
C425        C  0.32602604  0.09267239  0.26907658     1.11900
O426        O  0.43205595  0.31956881  0.27484303    -0.96300
Zr427      Zr  0.42742209  0.25685568  0.27153154     1.88900
O428        O  0.42636781  0.17759928  0.20707126    -0.72900
O429        O  0.30129715  0.17431025  0.28019065    -0.52200
O430        O  0.37321024  0.25590409  0.23756401    -0.96900
O431        O  0.48652135  0.30935986  0.24287369    -0.54100
O432        O  0.42886150  0.23524794  0.20341337    -0.73500
C433        C  0.42801458  0.20591921  0.18733447     0.98900
O434        O  0.42509714  0.10095674  0.26943846    -0.62300
O435        O  0.54072056  0.24032796  0.39297722    -0.57100
O436        O  0.48609520  0.16701134  0.26579095    -0.93800
O437        O  0.53021072  0.21418233  0.30688412    -0.92200
O438        O  0.47046143  0.15926291  0.43460483    -0.92500
O439        O  0.41551554  0.09665321  0.39663344    -0.91300
C440        C  0.52005332  0.18733570  0.28060822     1.17700
H441        H  0.47388708  0.23354583  0.42476475     0.33700
H442        H  0.36605084  0.11237919  0.33765602     0.44500
H443        H  0.48431391  0.23561484  0.25584208     0.38000
H444        H  0.37135282  0.25154940  0.32613165     0.34500
H445        H  0.36606432  0.09661600  0.45328319     0.26300
H446        H  0.27521875  0.15929858  0.29204023     0.32300
H447        H  0.38206640  0.26445228  0.20942520     0.38200
H448        H  0.45988494  0.14579021  0.46068901     0.32600
H449        H  0.53660881  0.21403072  0.39034698     0.31500
H450        H  0.57575059  0.29632094  0.31534879     0.33200
H451        H  0.49668042  0.29697586  0.22471966     0.32100
H452        H  0.42154034  0.09452837  0.36793708     0.36100
H453        H  0.44296194  0.10154592  0.29047510     0.28900
H454        H  0.40624421  0.30289305  0.44549863     0.33100
H455        H  0.43173049  0.32718850  0.24631004     0.36000
H456        H  0.56714574  0.25732130  0.38274236     0.28600
H457        H  0.39995182  0.07945530  0.27844053     0.41400
H458        H  0.29615042  0.13032116  0.39836533     0.31500
H459        H  0.34218642  0.11465948  0.43699054     0.39100
H460        H  0.50479342  0.31917203  0.26591806     0.31000
H461        H  0.30737781  0.20136298  0.28153302     0.31000
H462        H  0.41091017  0.31981241  0.40137697     0.31300
Zr463      Zr  0.42320143  0.25070672  0.89293610     2.17500
O464        O  0.42888185  0.31139920  0.91423969    -0.51100
O465        O  0.42553178  0.23559787  0.96436449    -0.74300
O466        O  0.36128753  0.24506271  0.90882581    -0.81000
O467        O  0.53059181  0.30434901  0.86544321    -0.82800
O468        O  0.31304328  0.19284747  0.87685776    -0.78400
O469        O  0.48534692  0.30923991  0.90221178    -0.90100
O470        O  0.42491579  0.17894916  0.96804534    -0.76000
O471        O  0.38248661  0.18283164  0.89858136    -0.85500
O472        O  0.46485185  0.22482839  0.89477505    -0.85200
O473        O  0.38322091  0.23196845  0.83316250    -0.72000
O474        O  0.45861294  0.26979279  0.83029603    -0.84100
Zr475      Zr  0.41910246  0.15468807  0.77797549     2.26400
Zr476      Zr  0.34316172  0.16334759  0.83870477     2.06300
Zr477      Zr  0.49921311  0.24245291  0.83188967     2.10000
Zr478      Zr  0.42427830  0.15712950  0.89957986     1.78800
O479        O  0.54478187  0.28942709  0.78401423    -0.92900
O480        O  0.36958841  0.10293199  0.93240777    -0.40700
O481        O  0.45946227  0.17431266  0.83715143    -0.77300
O482        O  0.38394180  0.13599769  0.84086407    -0.96000
O483        O  0.37787326  0.18110909  0.77594056    -0.89300
O484        O  0.45999091  0.22261758  0.77244203    -0.92200
C485        C  0.42567446  0.20820682  0.98413425     1.01600
C486        C  0.51983712  0.32225749  0.88932501     1.14500
C487        C  0.32582208  0.22276836  0.89945207     1.05300
O488        O  0.29642716  0.11481428  0.88454385    -0.94300
O489        O  0.31118509  0.10171050  0.80379174    -0.90100
O490        O  0.35586568  0.09915112  0.76352598    -0.83200
C491        C  0.32173585  0.08496087  0.77799310     1.11900
O492        O  0.41966586  0.30980788  0.77544026    -0.96300
Zr493      Zr  0.41877777  0.24889802  0.77103066     1.88900
O494        O  0.41659351  0.16900880  0.70618615    -0.72900
O495        O  0.29453411  0.16233344  0.79395902    -0.52200
O496        O  0.36007037  0.24354546  0.74364006    -0.96900
O497        O  0.47312960  0.30104381  0.73518554    -0.54100
O498        O  0.41447380  0.22439027  0.70304218    -0.73500
C499        C  0.41468657  0.19567629  0.68671534     0.98900
O500        O  0.41897996  0.09408253  0.77066847    -0.62300
O501        O  0.54891894  0.24441624  0.87561208    -0.57100
O502        O  0.48054488  0.16064328  0.75917311    -0.93800
O503        O  0.52728789  0.21005046  0.79593672    -0.92200
O504        O  0.48217802  0.16371860  0.93064744    -0.92500
O505        O  0.42761988  0.09854512  0.89469086    -0.91300
C506        C  0.51544107  0.18175050  0.77119578     1.17700
H507        H  0.48243710  0.23491619  0.91743995     0.33700
H508        H  0.36881707  0.10833238  0.84266923     0.44500
H509        H  0.47577035  0.22929664  0.74835131     0.38000
H510        H  0.36794823  0.24425564  0.83238954     0.34500
H511        H  0.38075337  0.09636697  0.95570039     0.26300
H512        H  0.27008405  0.14745932  0.80904675     0.32300
H513        H  0.36621405  0.25216118  0.71506586     0.38200
H514        H  0.47327575  0.14881875  0.95621781     0.32600
H515        H  0.54291168  0.21740146  0.87728908     0.35100
H516        H  0.57035473  0.29563063  0.79436533     0.33200
H517        H  0.48442173  0.28857054  0.71883854     0.32100
H518        H  0.42005104  0.08970932  0.86636590     0.36100
H519        H  0.44048039  0.09679310  0.78768307     0.28900
H520        H  0.41604381  0.30635666  0.94102676     0.33100
H521        H  0.41762704  0.31688031  0.74712274     0.36000
H522        H  0.57278407  0.25761099  0.85928475     0.28600
H523        H  0.39608111  0.07431981  0.78542320     0.41400
H524        H  0.30401289  0.12632951  0.91195341     0.31500
H525        H  0.35504913  0.11403864  0.94501699     0.39100
H526        H  0.49244045  0.31518068  0.75661355     0.31000
H527        H  0.29960235  0.18906916  0.79408865     0.31000
H528        H  0.41234823  0.31590353  0.89546007     0.31300
Zr529      Zr  0.84159792  0.25341943  0.10893365     2.17500
O530        O  0.89430911  0.31105330  0.07802153    -0.51100
O531        O  0.82503375  0.23445191  0.03785759    -0.74300
O532        O  0.90095807  0.25111946  0.10123232    -0.81000
O533        O  0.78568103  0.30561445  0.13135237    -0.82800
O534        O  0.89673073  0.20003748  0.13542515    -0.78400
O535        O  0.84008953  0.31319820  0.10159121    -0.90100
O536        O  0.77095189  0.17560490  0.03450254    -0.76000
O537        O  0.81657281  0.18574721  0.10734237    -0.85500
O538        O  0.77350132  0.22441927  0.10320791    -0.85200
O539        O  0.86178996  0.23877475  0.17206278    -0.72000
O540        O  0.82144007  0.27326815  0.16823497    -0.84100
Zr541      Zr  0.74701860  0.15963944  0.22443446     2.26400
Zr542      Zr  0.83549559  0.17035108  0.17045842     2.06300
Zr543      Zr  0.75313916  0.24300300  0.16294800     2.10000
Zr544      Zr  0.74842735  0.15678846  0.10303613     1.78800
O545        O  0.74657528  0.29031074  0.20285306    -0.92900
O546        O  0.75174713  0.10270387  0.07449097    -0.40700
O547        O  0.72694299  0.17507251  0.16208981    -0.77300
O548        O  0.76699481  0.13983588  0.16487826    -0.96000
O549        O  0.81502270  0.18903403  0.22994483    -0.89300
O550        O  0.77155486  0.22721578  0.22571068    -0.92200
C551        C  0.79898226  0.20535612  0.01828299     1.01600
C552        C  0.81703946  0.32515583  0.11156413     1.14500
C553        C  0.91454248  0.22989516  0.11293165     1.05300
O554        O  0.83750288  0.12099863  0.12961229    -0.94300
O555        O  0.80631790  0.11037115  0.20845035    -0.90100
O556        O  0.75564302  0.10610523  0.24379621    -0.83200
C557        C  0.77760907  0.09322723  0.23273312     1.11900
O558        O  0.89700133  0.31977855  0.22617287    -0.96300
Zr559      Zr  0.83936209  0.25646586  0.23076467     1.88900
O560        O  0.76228615  0.17595714  0.29606750    -0.72900
O561        O  0.88341261  0.17594347  0.21935991    -0.52200
O562        O  0.89450899  0.25754263  0.26256945    -0.96900
O563        O  0.83188945  0.30740918  0.26143521    -0.54100
O564        O  0.81800249  0.23361720  0.29906709    -0.73500
C565        C  0.78963953  0.20418006  0.31548635     0.98900
O566        O  0.68704837  0.09814833  0.23223313    -0.62300
O567        O  0.70557849  0.23643769  0.11290967    -0.57100
O568        O  0.69132086  0.16571180  0.24092984    -0.93800
O569        O  0.69319008  0.21225677  0.20001115    -0.92200
O570        O  0.69522100  0.15834702  0.06977218    -0.92500
O571        O  0.68794762  0.09614222  0.10898421    -0.91300
C572        C  0.67725548  0.18571363  0.22677319     1.17700
H573        H  0.76636257  0.23288087  0.07900322     0.33700
H574        H  0.75539711  0.11222088  0.16441233     0.44500
H575        H  0.76120759  0.23431254  0.24838376     0.38000
H576        H  0.88942891  0.25230321  0.17454673     0.34500
H577        H  0.73588896  0.09567280  0.04954183     0.26300
H578        H  0.89469646  0.16142384  0.20708643     0.32300
H579        H  0.89537911  0.26704183  0.29050678     0.38200
H580        H  0.68988238  0.14233867  0.04513144     0.32600
H581        H  0.68996155  0.24557040  0.12700252     0.31500
H582        H  0.72980893  0.29645518  0.18637718     0.33200
H583        H  0.81075041  0.29443143  0.28136022     0.32100
H584        H  0.67971167  0.09562601  0.13741880     0.36100
H585        H  0.66754786  0.10034830  0.21602363     0.28900
H586        H  0.90261914  0.30214564  0.05413402     0.33100
H587        H  0.90523772  0.32798505  0.25453553     0.36000
H588        H  0.72020753  0.25642941  0.09224580     0.28600
H589        H  0.69060425  0.07908366  0.21677447     0.41400
H590        H  0.84210815  0.13108019  0.10149985     0.31500
H591        H  0.77845393  0.11398589  0.06444565     0.39100
H592        H  0.82096192  0.31584468  0.23953693     0.31000
H593        H  0.90418616  0.20318480  0.21793616     0.31000
H594        H  0.91597950  0.32071192  0.09748097     0.31300
Zr595      Zr  0.74599673  0.15790565  0.72441337     2.17500
O596        O  0.68762797  0.10541228  0.75438872    -0.51100
O597        O  0.76444124  0.17407536  0.79569371    -0.74300
O598        O  0.74791313  0.09841142  0.73262615    -0.81000
O599        O  0.69409074  0.21395076  0.70170882    -0.82800
O600        O  0.79897586  0.10254886  0.69849473    -0.78400
O601        O  0.68632511  0.15949752  0.73154495    -0.90100
O602        O  0.82322377  0.22817746  0.79940379    -0.76000
O603        O  0.81362822  0.18261919  0.72645130    -0.85500
O604        O  0.77503157  0.22596247  0.73039210    -0.85200
O605        O  0.76073971  0.13775444  0.66131795    -0.72000
O606        O  0.72660338  0.17851695  0.66505302    -0.84100
Zr607      Zr  0.84057093  0.25280603  0.60979809     2.26400
Zr608      Zr  0.82908137  0.16376392  0.66330811     2.06300
Zr609      Zr  0.75698681  0.24682710  0.67070102     2.10000
Zr610      Zr  0.84254723  0.25077626  0.73103166     1.78800
O611        O  0.71089435  0.25562472  0.63108750    -0.92900
O612        O  0.89667045  0.24825379  0.76063980    -0.40700
O613        O  0.82494296  0.27296347  0.67202011    -0.77300
O614        O  0.85976407  0.23224832  0.66938475    -0.96000
O615        O  0.81088129  0.18473228  0.60382966    -0.89300
O616        O  0.77298822  0.22840751  0.60803677    -0.92200
C617        C  0.79341187  0.20010181  0.81544832     1.01600
C618        C  0.67445039  0.18257488  0.72145455     1.14500
C619        C  0.76910893  0.08477872  0.72099040     1.05300
O620        O  0.87809501  0.16017414  0.70314272    -0.94300
O621        O  0.88961539  0.19339275  0.62625767    -0.90100
O622        O  0.89429293  0.24422191  0.59086885    -0.83200
C623        C  0.90706314  0.22221362  0.60216463     1.11900
O624        O  0.68032365  0.10268325  0.60763354    -0.96300
Zr625      Zr  0.74344448  0.16057771  0.60257596     1.88900
O626        O  0.82480586  0.23792770  0.53812293    -0.72900
O627        O  0.82291350  0.11580589  0.61414910    -0.52200
O628        O  0.74165958  0.10541559  0.56987032    -0.96900
O629        O  0.69251527  0.16840986  0.57237796    -0.54100
O630        O  0.76670328  0.18275326  0.53449134    -0.73500
C631        C  0.79650587  0.21100022  0.51840789     0.98900
O632        O  0.90245590  0.31232124  0.60159145    -0.62300
O633        O  0.76321658  0.29349488  0.72176150    -0.57100
O634        O  0.83456176  0.30863308  0.59328779    -0.93800
O635        O  0.78797330  0.30692834  0.63396316    -0.92200
O636        O  0.83981851  0.30298954  0.76511670    -0.92500
O637        O  0.90333394  0.31099286  0.72460810    -0.91300
C638        C  0.81461974  0.32282377  0.60732348     1.17700
H639        H  0.76644585  0.23300157  0.75457283     0.33700
H640        H  0.88736520  0.24377772  0.67013766     0.44500
H641        H  0.76609918  0.23891391  0.58534265     0.38000
H642        H  0.74713654  0.11011079  0.65884748     0.34500
H643        H  0.90206535  0.26261935  0.78650665     0.26300
H644        H  0.83629553  0.10349417  0.62682076     0.32300
H645        H  0.73327657  0.10561022  0.54164896     0.38200
H646        H  0.85597226  0.30841147  0.78965196     0.32600
H647        H  0.75677157  0.31104674  0.70727806     0.31500
H648        H  0.70622856  0.27355923  0.64733828     0.33200
H649        H  0.70546345  0.18944641  0.55233610     0.32100
H650        H  0.90429225  0.31850392  0.69581293     0.36100
H651        H  0.90015173  0.33258510  0.61610051     0.28900
H652        H  0.69601475  0.09696748  0.77858503     0.33100
H653        H  0.67105737  0.09550195  0.57935848     0.36000
H654        H  0.74144749  0.27905057  0.74066146     0.28600
H655        H  0.92098376  0.30916657  0.61854755     0.41400
H656        H  0.86926965  0.15763313  0.73162986     0.31500
H657        H  0.88591520  0.22113168  0.76902269     0.39100
H658        H  0.68439904  0.17955727  0.59435192     0.31000
H659        H  0.79536708  0.09574544  0.61479459     0.31000
H660        H  0.67821952  0.08377434  0.73491613     0.31300
Zr661      Zr  0.75091685  0.57742676  0.93935739     2.17500
O662        O  0.69084817  0.57202661  0.91615959    -0.51100
O663        O  0.76631731  0.57523460  0.86797599    -0.74300
O664        O  0.75593684  0.63901719  0.92424233    -0.81000
O665        O  0.69657285  0.47026542  0.96722717    -0.82800
O666        O  0.80820201  0.68731234  0.95601019    -0.78400
O667        O  0.69136894  0.51590403  0.93167858    -0.90100
O668        O  0.82290644  0.57573255  0.86436989    -0.76000
O669        O  0.81881057  0.61810321  0.93364254    -0.85500
O670        O  0.77658888  0.53562308  0.93730222    -0.85200
O671        O  0.76964963  0.61732968  0.99918510    -0.72000
O672        O  0.73156060  0.54200547  0.00192317    -0.84100
Zr673      Zr  0.84656623  0.58115602  0.05459091     2.26400
Zr674      Zr  0.83818311  0.65731236  0.99358399     2.06300
Zr675      Zr  0.75866899  0.50129586  0.00019875     2.10000
Zr676      Zr  0.84437743  0.57616740  0.93293157     1.78800
O677        O  0.71110695  0.45575460  0.04759377    -0.92900
O678        O  0.89941758  0.63091131  0.90119525    -0.40700
O679        O  0.82686652  0.54094833  0.99530235    -0.77300
O680        O  0.86546304  0.61640705  0.99172126    -0.96000
O681        O  0.82039109  0.62259246  0.05635835    -0.89300
O682        O  0.77864203  0.54037247  0.05976714    -0.92200
C683        C  0.79370715  0.57505521  0.84824190     1.01600
C684        C  0.67835294  0.48132229  0.94424217     1.14500
C685        C  0.77811771  0.67442911  0.93365985     1.05300
O686        O  0.88659845  0.70387453  0.94752352    -0.94300
O687        O  0.89963785  0.68904430  0.02859850    -0.90100
O688        O  0.90165236  0.64453281  0.06969974    -0.83200
C689        C  0.91597339  0.67861358  0.05502238     1.11900
O690        O  0.69144327  0.58005681  0.05557954    -0.96300
Zr691      Zr  0.75262957  0.58174633  0.06122529     1.88900
O692        O  0.83201635  0.58353750  0.12633708    -0.72900
O693        O  0.83920352  0.70610220  0.03813027    -0.52200
O694        O  0.75635872  0.63963523  0.08879631    -0.96900
O695        O  0.70136971  0.52756393  0.09809806    -0.54100
O696        O  0.77755794  0.58733546  0.12917858    -0.73500
C697        C  0.80580255  0.58635666  0.14566574     0.98900
O698        O  0.90709002  0.58121667  0.06243400    -0.62300
O699        O  0.75694017  0.45160873  0.95659250    -0.57100
O700        O  0.83959898  0.51924967  0.07347604    -0.93800
O701        O  0.78984052  0.47258081  0.03697200    -0.92200
O702        O  0.83795731  0.51825896  0.90213827    -0.92500
O703        O  0.90220380  0.57147100  0.93769329    -0.91300
C704        C  0.81808569  0.48430465  0.06173557     1.17700
H705        H  0.76650640  0.51808835  0.91459335     0.33700
H706        H  0.89313993  0.63148097  0.99003136     0.44500
H707        H  0.77181055  0.52454705  0.08383281     0.38000
H708        H  0.75731891  0.63255192  0.00014417     0.34500
H709        H  0.90581114  0.61994315  0.87759194     0.26300
H710        H  0.85144360  0.73001497  0.02181441     0.32300
H711        H  0.74501269  0.63232718  0.11630842     0.38200
H712        H  0.85139904  0.52680537  0.87571716     0.32600
H713        H  0.78406545  0.45803833  0.95452077     0.31500
H714        H  0.70269940  0.43018583  0.03558241     0.33200
H715        H  0.71444184  0.51855667  0.11677380     0.32100
H716        H  0.91201552  0.58042833  0.96548724     0.36100
H717        H  0.90429883  0.55947350  0.04579815     0.28900
H718        H  0.69654544  0.58515411  0.88949511     0.33100
H719        H  0.68355355  0.58132213  0.08375503     0.36000
H720        H  0.74429843  0.42786418  0.97315939     0.28600
H721        H  0.92676978  0.60396248  0.04740726     0.41400
H722        H  0.87501583  0.69615748  0.92015508     0.31500
H723        H  0.88884384  0.64610198  0.88901285     0.39100
H724        H  0.68896379  0.50688393  0.07758781     0.31000
H725        H  0.81196590  0.69922040  0.04047058     0.31000
H726        H  0.68568130  0.58822352  0.93475810     0.31300
Zr727      Zr  0.74795461  0.58092493  0.43948965     2.17500
O728        O  0.69069223  0.57648229  0.40876628    -0.51100
O729        O  0.76672373  0.58442300  0.36796707    -0.74300
O730        O  0.75112380  0.64305647  0.43347185    -0.81000
O731        O  0.69421342  0.47190611  0.45891278    -0.82800
O732        O  0.80201720  0.68917684  0.46898792    -0.78400
O733        O  0.68738467  0.52015282  0.43188948    -0.90100
O734        O  0.82482627  0.58816330  0.36439637    -0.76000
O735        O  0.81568378  0.62365251  0.43857175    -0.85500
O736        O  0.77588349  0.54122420  0.43235574    -0.85200
O737        O  0.76270196  0.61437627  0.50368765    -0.72000
O738        O  0.72737437  0.53929799  0.49773135    -0.84100
Zr739      Zr  0.84037232  0.57654395  0.55363854     2.26400
Zr740      Zr  0.83124959  0.65659669  0.50264563     2.06300
Zr741      Zr  0.75653439  0.50064643  0.49104388     2.10000
Zr742      Zr  0.84357339  0.58389348  0.43262409     1.78800
O743        O  0.70892174  0.44704034  0.53147155    -0.92900
O744        O  0.89739141  0.64244472  0.40496555    -0.40700
O745        O  0.82460354  0.54228548  0.49036445    -0.77300
O746        O  0.86086989  0.61813206  0.49538237    -0.96000
O747        O  0.81174336  0.61550188  0.56086784    -0.89300
O748        O  0.77261182  0.53358995  0.55459971    -0.92200
C749        C  0.79553633  0.58714179  0.34824577     1.01600
C750        C  0.67500275  0.48465873  0.44032876     1.14500
C751        C  0.77245843  0.67769466  0.44613386     1.05300
O752        O  0.88106472  0.70820769  0.46196007    -0.94300
O753        O  0.89129047  0.68640616  0.54062117    -0.90100
O754        O  0.89421634  0.63859088  0.57455622    -0.83200
C755        C  0.90784806  0.67391381  0.56437339     1.11900
O756        O  0.68195305  0.56886206  0.55684127    -0.96300
Zr757      Zr  0.74415337  0.57249231  0.56126758     1.88900
O758        O  0.82405121  0.57316626  0.62540810    -0.72900
O759        O  0.82711159  0.69867619  0.55302222    -0.52200
O760        O  0.74454429  0.62583761  0.59656911    -0.96900
O761        O  0.69130430  0.51336348  0.58948888    -0.54100
O762        O  0.76648440  0.57086434  0.62914998    -0.73500
C763        C  0.79577738  0.57153486  0.64517535     0.98900
O764        O  0.90087076  0.57638481  0.55992008    -0.62300
O765        O  0.75967989  0.45854216  0.43999772    -0.57100
O766        O  0.83366805  0.51404265  0.56780506    -0.93800
O767        O  0.78682271  0.47011500  0.52624755    -0.92200
O768        O  0.84249162  0.53078838  0.39610477    -0.92500
O769        O  0.90397300  0.58409805  0.43777128    -0.91300
C770        C  0.81342417  0.48015088  0.55284273     1.17700
H771        H  0.76732160  0.52600549  0.40783426     0.33700
H772        H  0.88852667  0.63404531  0.49507268     0.44500
H773        H  0.76527240  0.51552656  0.57677709     0.38000
H774        H  0.74946597  0.62860114  0.50674700     0.34500
H775        H  0.90438085  0.63420678  0.37961180     0.26300
H776        H  0.84332641  0.72493863  0.54199907     0.32300
H777        H  0.73533255  0.61619269  0.62435838     0.38200
H778        H  0.85660184  0.54227622  0.37053683     0.32600
H779        H  0.78688243  0.46503833  0.44011460     0.31500
H780        H  0.70330500  0.42377497  0.51584744     0.33200
H781        H  0.70357843  0.50246893  0.60676297     0.32100
H782        H  0.90365943  0.57422805  0.46538205     0.36100
H783        H  0.89867275  0.55622804  0.54105131     0.28900
H784        H  0.69986540  0.59412772  0.38516810     0.33100
H785        H  0.67314359  0.56737948  0.58521399     0.36000
H786        H  0.74544972  0.43250944  0.45208565     0.28600
H787        H  0.92077989  0.60044120  0.54697252     0.41400
H788        H  0.86997542  0.70435215  0.43434818     0.31500
H789        H  0.88598311  0.65786595  0.39561899     0.39100
H790        H  0.68084251  0.49556208  0.56609237     0.31000
H791        H  0.80047372  0.69372897  0.55089904     0.31000
H792        H  0.68116148  0.58832490  0.42848142     0.31300
C793        C  0.79186387  0.57376770  0.80466190    -0.18200
C794        C  0.79283312  0.57252019  0.76809311     0.05800
C795        C  0.79525038  0.57128705  0.72534585     0.07700
C796        C  0.79669471  0.57087615  0.68876107    -0.19100
C797        C  0.80722795  0.58808209  0.18927809    -0.18200
C798        C  0.80429890  0.58883096  0.22571730     0.05800
C799        C  0.79892264  0.58900608  0.26817182     0.07700
C800        C  0.79542413  0.58856016  0.30462368    -0.19100
C801        C  0.82111106  0.45085293  0.56623916    -0.18200
C802        C  0.82485395  0.42386352  0.57482848     0.05800
C803        C  0.82552013  0.38998928  0.58380518     0.07700
C804        C  0.82252614  0.35961785  0.59278652    -0.19100
C805        C  0.82635527  0.45571379  0.07640728    -0.18200
C806        C  0.83018289  0.42877464  0.08516168     0.05800
C807        C  0.83051802  0.39453887  0.09333290     0.07700
C808        C  0.82679512  0.36349615  0.10055411    -0.19100
C809        C  0.80056821  0.20590172  0.97473428    -0.18200
C810        C  0.79871572  0.20376046  0.93819396     0.05800
C811        C  0.79502311  0.20020523  0.89552681     0.07700
C812        C  0.79275220  0.19840154  0.85899147    -0.19100
C813        C  0.78905883  0.20333165  0.35910067    -0.18200
C814        C  0.79158849  0.20570507  0.39562522     0.05800
C815        C  0.79563994  0.20971999  0.43827363     0.07700
C816        C  0.79776201  0.21197493  0.47481829    -0.19100
C817        C  0.54382945  0.17308302  0.75668698    -0.18200
C818        C  0.57070136  0.16918280  0.74777756     0.05800
C819        C  0.60497629  0.16896180  0.73944942     0.07700
C820        C  0.63606922  0.17279404  0.73226739    -0.19100
C821        C  0.54899523  0.35987410  0.90238511    -0.18200
C822        C  0.57587363  0.39069052  0.91194335     0.05800
C823        C  0.60981477  0.42510810  0.92242743     0.07700
C824        C  0.64049219  0.45231836  0.93172959    -0.19100
C825        C  0.64055118  0.17799143  0.24133045    -0.18200
C826        C  0.61020368  0.17504879  0.25027165     0.05800
C827        C  0.57630462  0.17570912  0.25906228     0.07700
C828        C  0.54928523  0.17946887  0.26742937    -0.19100
C829        C  0.54395310  0.36356123  0.40536880    -0.18200
C830        C  0.57088056  0.39486249  0.41313264     0.05800
C831        C  0.60530364  0.42954721  0.42115911     0.07700
C832        C  0.63654376  0.45661673  0.42880173    -0.19100
C833        C  0.41297693  0.19413044  0.64312326    -0.18200
C834        C  0.41206411  0.19695435  0.60670132     0.05800
C835        C  0.41164598  0.20232087  0.56430416     0.07700
C836        C  0.41194072  0.20584922  0.52789032    -0.19100
C837        C  0.42858989  0.20504890  0.14372334    -0.18200
C838        C  0.42843924  0.20657156  0.10712109     0.05800
C839        C  0.42775576  0.20905378  0.06432280     0.07700
C840        C  0.42686987  0.21005244  0.02772496    -0.19100
C841        C  0.94520583  0.23264515  0.58931317    -0.18200
C842        C  0.97892304  0.24594945  0.58189033     0.05800
C843        C  0.01904189  0.26594659  0.57483244     0.07700
C844        C  0.05292815  0.28634875  0.56800137    -0.19100
C845        C  0.29505248  0.23975991  0.39765214    -0.18200
C846        C  0.27471995  0.25301284  0.40484555     0.05800
C847        C  0.25444493  0.27242142  0.41289918     0.07700
C848        C  0.24062777  0.29203380  0.42124033    -0.19100
C849        C  0.21198664  0.40549981  0.80705292    -0.18200
C850        C  0.20867179  0.40477876  0.77057980     0.05800
C851        C  0.20357716  0.40458595  0.72805748     0.07700
C852        C  0.20092646  0.40523308  0.69158084    -0.19100
C853        C  0.21081685  0.42206987  0.19107871    -0.18200
C854        C  0.21221509  0.42175210  0.22765727     0.05800
C855        C  0.21453503  0.42066056  0.27040354     0.07700
C856        C  0.21547562  0.41948391  0.30696459    -0.19100
C857        C  0.95349440  0.24185503  0.10195499    -0.18200
C858        C  0.98721658  0.25479545  0.09498916     0.05800
C859        C  0.02717253  0.27347844  0.08744172     0.07700
C860        C  0.06094145  0.29269393  0.07954279    -0.19100
C861        C  0.29898781  0.23400252  0.91299738    -0.18200
C862        C  0.27937920  0.24783982  0.92149786     0.05800
C863        C  0.26000118  0.26817709  0.92981881     0.07700
C864        C  0.24669471  0.28848324  0.93716366    -0.19100
C865        C  0.75719635  0.04584689  0.73208921    -0.18200
C866        C  0.74458152  0.01217530  0.73911249     0.05800
C867        C  0.72639615  0.97224659  0.74673490     0.07700
C868        C  0.70743870  0.93846323  0.75469897    -0.19100
C869        C  0.71190684  0.75301216  0.89624539    -0.18200
C870        C  0.73205304  0.73955174  0.90346580     0.05800
C871        C  0.75238657  0.72026036  0.91183676     0.07700
C872        C  0.76652813  0.70098085  0.92037552    -0.19100
C873        C  0.37029059  0.53659323  0.92906280    -0.18200
C874        C  0.40159014  0.56342518  0.92105995     0.05800
C875        C  0.43618625  0.59787490  0.91275240     0.07700
C876        C  0.46317653  0.62913442  0.90493456    -0.19100
C877        C  0.71316251  0.94759701  0.26764050    -0.18200
C878        C  0.73356192  0.98150992  0.26099227     0.05800
C879        C  0.75372173  0.02159781  0.25386173     0.07700
C880        C  0.76718768  0.05526029  0.24611596    -0.19100
C881        C  0.76086090  0.70499686  0.43569326    -0.18200
C882        C  0.74739289  0.72518060  0.42851870     0.05800
C883        C  0.72770373  0.74522466  0.42039107     0.07700
C884        C  0.70786479  0.75883530  0.41208652    -0.19100
C885        C  0.45835094  0.63281257  0.40140404    -0.18200
C886        C  0.43125145  0.60224798  0.41115918     0.05800
C887        C  0.39700496  0.56829820  0.42193117     0.07700
C888        C  0.36625998  0.54136806  0.43152585    -0.19100
C889        C  0.58024322  0.78397277  0.52714505    -0.18200
C890        C  0.57918844  0.78482743  0.56375279     0.05800
C891        C  0.57812129  0.78690943  0.60657538     0.07700
C892        C  0.57776573  0.78815205  0.64319116    -0.19100
C893        C  0.59565127  0.78678728  0.02719176    -0.18200
C894        C  0.59608231  0.79051070  0.06360434     0.05800
C895        C  0.59592395  0.79619292  0.10599559     0.07700
C896        C  0.59522522  0.79925566  0.14242171    -0.19100
C897        C  0.94604912  0.70084526  0.57807046    -0.18200
C898        C  0.97978322  0.72004059  0.58623675     0.05800
C899        C  0.01971403  0.73850056  0.59406699     0.07700
C900        C  0.05339975  0.75122297  0.60116936    -0.19100
C901        C  0.24014059  0.93829643  0.74566974    -0.18200
C902        C  0.25356496  0.97204749  0.75305620     0.05800
C903        C  0.27366746  0.01221898  0.75992819     0.07700
C904        C  0.29403010  0.04615826  0.76661070    -0.19100
C905        C  0.45748489  0.81331867  0.76720278    -0.18200
C906        C  0.43056266  0.81721152  0.75868389     0.05800
C907        C  0.39685939  0.81815999  0.74954081     0.07700
C908        C  0.36662570  0.81540896  0.74041142    -0.19100
C909        C  0.18109904  0.53698301  0.57917437    -0.18200
C910        C  0.17712631  0.56399547  0.58725943     0.05800
C911        C  0.17664860  0.59838007  0.59425314     0.07700
C912        C  0.18027705  0.62955207  0.60057715    -0.19100
C913        C  0.95444884  0.70651868  0.06701591    -0.18200
C914        C  0.98823201  0.72730127  0.07401558     0.05800
C915        C  0.02833859  0.74782392  0.08103962     0.07700
C916        C  0.06207270  0.76136902  0.08850109    -0.19100
C917        C  0.29914917  0.05440428  0.25559461    -0.18200
C918        C  0.28000044  0.02066049  0.24752666     0.05800
C919        C  0.26156774  0.98072759  0.23988182     0.07700
C920        C  0.24900147  0.94708296  0.23278763    -0.19100
C921        C  0.46265935  0.81877505  0.25524397    -0.18200
C922        C  0.43580124  0.82286104  0.24673851     0.05800
C923        C  0.40167893  0.82360402  0.23895348     0.07700
C924        C  0.37072894  0.82028028  0.23206785    -0.19100
C925        C  0.18582412  0.54230142  0.06736583    -0.18200
C926        C  0.18203461  0.56939256  0.07527895     0.05800
C927        C  0.18145940  0.60343481  0.08354688     0.07700
C928        C  0.18450543  0.63389521  0.09220932    -0.19100
C929        C  0.20936174  0.78248305  0.97451024    -0.18200
C930        C  0.21143776  0.78453411  0.93796936     0.05800
C931        C  0.21539423  0.78809027  0.89531124     0.07700
C932        C  0.21785157  0.79006149  0.85878282    -0.19100
C933        C  0.21397096  0.79522438  0.35865756    -0.18200
C934        C  0.21183802  0.79361973  0.39520300     0.05800
C935        C  0.20826115  0.79016035  0.43788400     0.07700
C936        C  0.20635095  0.78791775  0.47442024    -0.19100
loop_ 
_geom_bond_atom_site_label_1 
_geom_bond_atom_site_label_2 
_geom_bond_distance 
_geom_bond_site_symmetry_2 
_ccdc_geom_bond_type 
Zr1           O2   2.440       .  S
Zr1           O3   2.445       .  S
Zr1           O4   2.451       .  S
Zr1           O7   2.450       .  S
Zr1           O9   2.383       .  S
Zr1          O10   2.386       .  S
Zr1          O11   2.411       .  S
Zr1          O12   2.400       .  S
O2           H58   0.990       .  S
O2           H66   0.991       .  S
O3           C23   1.284       .  A
O4           C25   1.285       .  A
O5          Zr15   2.413       .  S
O5           C24   1.279       .  A
O6          Zr14   2.423       .  S
O6           C25   1.280       .  A
O7           C24   1.286       .  A
O8          Zr16   2.408       .  S
O8           C23   1.277       .  A
O9          Zr14   2.399       .  S
O9          Zr16   2.384       .  S
O10         Zr15   2.391       .  S
O10         Zr16   2.379       .  S
O10          H45   0.966       .  S
O11         Zr14   2.403       .  S
O11         Zr31   2.392       .  S
O11          H48   0.965       .  S
O12         Zr15   2.386       .  S
O12         Zr31   2.387       .  S
Zr13         O38   2.449       .  S
Zr13         O32   2.440       .  S
Zr13         O40   2.443       .  S
Zr13         O28   2.440       .  S
Zr13         O19   2.402       .  S
Zr13         O20   2.403       .  S
Zr13         O21   2.381       .  S
Zr13         O22   2.383       .  S
Zr14         O33   2.434       .  S
Zr14         O26   2.435       .  S
Zr14         O27   2.434       .  S
Zr14         O20   2.394       .  S
Zr14         O21   2.389       .  S
Zr15         O17   2.436       .  S
Zr15         O39   2.440       .  S
Zr15         O41   2.416       .  S
Zr15         O19   2.386       .  S
Zr15         O22   2.390       .  S
Zr16         O42   2.435       .  S
Zr16         O43   2.436       .  S
Zr16         O18   2.436       .  S
Zr16         O19   2.391       .  S
Zr16         O20   2.384       .  S
O17          H54   0.990       .  S
O18          H49   0.990       .  S
O18          H63   0.990       .  S
O20          H46   0.965       .  S
O21         Zr31   2.378       .  S
O22         Zr31   2.375       .  S
O22          H47   0.966       .  S
C23         C933   1.435       .  S
C24         C924   1.436       .  S
C25         C920   1.436       .  S
O26          H62   0.990       .  S
O27          C29   1.284       .  A
O28          C29   1.285       .  A
C29         C916   1.437       .  S
O30         Zr31   2.439       .  S
O30          H59   0.990       .  S
Zr31         O34   2.437       .  S
Zr31         O35   2.440       .  S
Zr31         O36   2.419       .  S
O32          C37   1.285       .  A
O33          H50   0.990       .  S
O33          H65   0.990       .  S
O34          H51   0.990       .  S
O35          H55   0.990       .  S
O35          H64   0.990       .  S
O36          C37   1.280       .  A
C37         C929   1.435   1_554  S
O38          H57   0.990       .  S
O38          H61   0.990       .  S
O39          H53   0.990       .  S
O39          H60   0.990       .  S
O40          C44   1.285       .  A
O41          C44   1.280       .  A
O42          H52   0.990       .  S
O43          H56   0.990       .  S
C44         C928   1.432       .  S
Zr67         O68   2.441       .  S
Zr67         O69   2.451       .  S
Zr67         O70   2.450       .  S
Zr67         O73   2.455       .  S
Zr67         O75   2.384       .  S
Zr67         O76   2.384       .  S
Zr67         O77   2.414       .  S
Zr67         O78   2.401       .  S
O68         H124   0.990       .  S
O68         H132   0.991       .  S
O69          C89   1.285       .  A
O70          C91   1.285       .  A
O71         Zr81   2.413       .  S
O71          C90   1.279       .  A
O72         Zr80   2.427       .  S
O72          C91   1.281       .  A
O73          C90   1.287       .  A
O74         Zr82   2.405       .  S
O74          C89   1.277       .  A
O75         Zr80   2.400       .  S
O75         Zr82   2.383       .  S
O76         Zr81   2.391       .  S
O76         Zr82   2.380       .  S
O76         H111   0.966       .  S
O77         Zr80   2.404       .  S
O77         Zr97   2.391       .  S
O77         H114   0.965       .  S
O78         Zr81   2.388       .  S
O78         Zr97   2.390       .  S
Zr79        O104   2.450       .  S
Zr79         O98   2.440       .  S
Zr79        O106   2.439       .  S
Zr79         O94   2.439       .  S
Zr79         O85   2.399       .  S
Zr79         O86   2.403       .  S
Zr79         O87   2.382       .  S
Zr79         O88   2.383       .  S
Zr80         O99   2.435       .  S
Zr80         O92   2.436       .  S
Zr80         O93   2.436       .  S
Zr80         O86   2.396       .  S
Zr80         O87   2.391       .  S
Zr81         O83   2.436       .  S
Zr81        O105   2.440       .  S
Zr81        O107   2.415       .  S
Zr81         O85   2.383       .  S
Zr81         O88   2.390       .  S
Zr82        O108   2.435       .  S
Zr82        O109   2.436       .  S
Zr82         O84   2.437       .  S
Zr82         O85   2.389       .  S
Zr82         O86   2.384       .  S
O83         H120   0.990       .  S
O84         H115   0.990       .  S
O84         H129   0.990       .  S
O86         H112   0.965       .  S
O87         Zr97   2.379       .  S
O88         Zr97   2.373       .  S
O88         H113   0.966       .  S
C89         C936   1.435       .  S
C90         C912   1.437       .  S
C91         C900   1.437       .  S
O92         H128   0.990       .  S
O93          C95   1.284       .  A
O94          C95   1.284       .  A
C95         C901   1.438       .  S
O96         Zr97   2.439       .  S
O96         H125   0.990       .  S
Zr97        O100   2.437       .  S
Zr97        O101   2.440       .  S
Zr97        O102   2.420       .  S
O98         C103   1.285       .  A
O99         H116   0.990       .  S
O99         H131   0.990       .  S
O100        H117   0.990       .  S
O101        H121   0.990       .  S
O101        H130   0.990       .  S
O102        C103   1.280       .  A
C103        C932   1.436       .  S
O104        H123   0.990       .  S
O104        H127   0.990       .  S
O105        H119   0.990       .  S
O105        H126   0.990       .  S
O106        C110   1.284       .  A
O107        C110   1.280       .  A
O108        H118   0.990       .  S
O109        H122   0.990       .  S
C110        C908   1.432       .  S
Zr133       O134   2.442       .  S
Zr133       O135   2.446       .  S
Zr133       O136   2.443       .  S
Zr133       O139   2.440       .  S
Zr133       O141   2.383       .  S
Zr133       O142   2.381       .  S
Zr133       O143   2.409       .  S
Zr133       O144   2.405       .  S
O134        H190   0.990       .  S
O134        H198   0.990       .  S
O135        C155   1.284       .  A
O136        C157   1.284       .  A
O137       Zr147   2.421       .  S
O137        C156   1.282       .  A
O138       Zr146   2.433       .  S
O138        C157   1.283       .  A
O139        C156   1.284       .  A
O140       Zr148   2.414       .  S
O140        C155   1.278       .  A
O141       Zr146   2.399       .  S
O141       Zr148   2.382       .  S
O142       Zr147   2.391       .  S
O142       Zr148   2.375       .  S
O142        H177   0.966       .  S
O143       Zr146   2.402       .  S
O143       Zr163   2.389       .  S
O143        H180   0.965       .  S
O144       Zr147   2.389       .  S
O144       Zr163   2.394       .  S
Zr145       O170   2.453       .  S
Zr145       O164   2.448       .  S
Zr145       O172   2.448       .  S
Zr145       O160   2.446       .  S
Zr145       O151   2.401       .  S
Zr145       O152   2.406       .  S
Zr145       O153   2.384       .  S
Zr145       O154   2.386       .  S
Zr146       O165   2.435       .  S
Zr146       O158   2.437       .  S
Zr146       O159   2.430       .  S
Zr146       O152   2.398       .  S
Zr146       O153   2.395       .  S
Zr147       O149   2.436       .  S
Zr147       O171   2.436       .  S
Zr147       O173   2.421       .  S
Zr147       O151   2.388       .  S
Zr147       O154   2.388       .  S
Zr148       O174   2.435       .  S
Zr148       O175   2.436       .  S
Zr148       O150   2.436       .  S
Zr148       O151   2.391       .  S
Zr148       O152   2.387       .  S
O149        H186   0.990       .  S
O150        H181   0.990       .  S
O150        H195   0.990       .  S
O152        H178   0.965       .  S
O153       Zr163   2.379       .  S
O154       Zr163   2.375       .  S
O154        H179   0.966       .  S
C155        C889   1.438       .  S
C156        C885   1.436       .  S
C157        C884   1.437       .  S
O158        H194   0.990       .  S
O159        C161   1.283       .  A
O160        C161   1.285       .  A
C161        C877   1.437       .  S
O162       Zr163   2.440       .  S
O162        H191   0.990       .  S
Zr163       O166   2.436       .  S
Zr163       O167   2.441       .  S
Zr163       O168   2.418       .  S
O164        C169   1.286       .  A
O165        H182   0.990       .  S
O165        H197   0.990       .  S
O166        H183   0.990       .  S
O167        H187   0.990       .  S
O167        H196   0.990       .  S
O168        C169   1.280       .  A
C169        C896   1.438       .  S
O170        H189   0.990       .  S
O170        H193   0.990       .  S
O171        H185   0.990       .  S
O171        H192   0.990       .  S
O172        C176   1.285       .  A
O173        C176   1.281       .  A
O174        H184   0.990       .  S
O175        H188   0.990       .  S
C176        C921   1.436       .  S
Zr199       O200   2.442       .  S
Zr199       O201   2.453       .  S
Zr199       O202   2.444       .  S
Zr199       O205   2.447       .  S
Zr199       O207   2.382       .  S
Zr199       O208   2.385       .  S
Zr199       O209   2.414       .  S
Zr199       O210   2.402       .  S
O200        H256   0.990       .  S
O200        H264   0.991       .  S
O201        C221   1.285       .  A
O202        C223   1.283       .  A
O203       Zr213   2.414       .  S
O203        C222   1.280       .  A
O204       Zr212   2.428       .  S
O204        C223   1.281       .  A
O205        C222   1.285       .  A
O206       Zr214   2.404       .  S
O206        C221   1.276       .  A
O207       Zr212   2.401       .  S
O207       Zr214   2.383       .  S
O208       Zr213   2.392       .  S
O208       Zr214   2.377       .  S
O208        H243   0.966       .  S
O209       Zr212   2.403       .  S
O209       Zr229   2.391       .  S
O209        H246   0.965       .  S
O210       Zr213   2.388       .  S
O210       Zr229   2.391       .  S
Zr211       O236   2.454       .  S
Zr211       O230   2.443       .  S
Zr211       O238   2.442       .  S
Zr211       O226   2.438       .  S
Zr211       O217   2.401       .  S
Zr211       O218   2.405       .  S
Zr211       O219   2.385       .  S
Zr211       O220   2.382       .  S
Zr212       O231   2.437       .  S
Zr212       O224   2.434       .  S
Zr212       O225   2.434       .  S
Zr212       O218   2.399       .  S
Zr212       O219   2.392       .  S
Zr213       O215   2.435       .  S
Zr213       O237   2.436       .  S
Zr213       O239   2.419       .  S
Zr213       O217   2.387       .  S
Zr213       O220   2.385       .  S
Zr214       O240   2.436       .  S
Zr214       O241   2.435       .  S
Zr214       O216   2.437       .  S
Zr214       O217   2.390       .  S
Zr214       O218   2.385       .  S
O215        H252   0.990       .  S
O216        H247   0.990       .  S
O216        H261   0.990       .  S
O218        H244   0.965       .  S
O219       Zr229   2.380       .  S
O220       Zr229   2.374       .  S
O220        H245   0.966       .  S
C221        C893   1.437   1_556  S
C222        C876   1.434       .  S
C223        C869   1.435       .  S
O224        H260   0.990       .  S
O225        C227   1.284       .  A
O226        C227   1.284       .  A
C227        C868   1.436       .  S
O228       Zr229   2.440       .  S
O228        H257   0.990       .  S
Zr229       O232   2.437       .  S
Zr229       O233   2.440       .  S
Zr229       O234   2.417       .  S
O230        C235   1.285       .  A
O231        H248   0.990       .  S
O231        H263   0.990       .  S
O232        H249   0.990       .  S
O233        H253   0.990       .  S
O233        H262   0.990       .  S
O234        C235   1.280       .  A
C235        C892   1.437       .  S
O236        H255   0.990       .  S
O236        H259   0.990       .  S
O237        H251   0.990       .  S
O237        H258   0.990       .  S
O238        C242   1.284       .  A
O239        C242   1.281       .  A
O240        H250   0.990       .  S
O241        H254   0.990       .  S
C242        C905   1.433       .  S
Zr265       O266   2.443       .  S
Zr265       O267   2.453       .  S
Zr265       O268   2.446       .  S
Zr265       O271   2.444       .  S
Zr265       O273   2.383       .  S
Zr265       O274   2.385       .  S
Zr265       O275   2.414   1_556  S
Zr265       O276   2.403   1_556  S
O266        H322   0.990       .  S
O266        H330   0.991       .  S
O267        C287   1.285       .  A
O268        C289   1.284       .  A
O269       Zr279   2.417       .  S
O269        C288   1.280       .  A
O270       Zr278   2.433   1_556  S
O270        C289   1.282       .  A
O271        C288   1.284       .  A
O272       Zr280   2.403       .  S
O272        C287   1.276       .  A
O273       Zr278   2.401   1_556  S
O273       Zr280   2.385       .  S
O274       Zr279   2.391       .  S
O274       Zr280   2.380       .  S
O274        H309   0.966       .  S
O275       Zr278   2.404       .  S
O275       Zr295   2.391       .  S
O275        H312   0.965       .  S
O276       Zr279   2.388   1_554  S
O276       Zr295   2.392       .  S
Zr277       O302   2.452       .  S
Zr277       O296   2.439       .  S
Zr277       O304   2.440       .  S
Zr277       O292   2.437       .  S
Zr277       O283   2.400   1_554  S
Zr277       O284   2.403   1_554  S
Zr277       O285   2.384       .  S
Zr277       O286   2.383       .  S
Zr278       O297   2.437       .  S
Zr278       O290   2.436   1_554  S
Zr278       O291   2.435       .  S
Zr278       O284   2.398   1_554  S
Zr278       O285   2.394       .  S
Zr279       O281   2.436   1_556  S
Zr279       O303   2.437       .  S
Zr279       O305   2.420   1_556  S
Zr279       O283   2.388       .  S
Zr279       O286   2.387   1_556  S
Zr280       O306   2.435       .  S
Zr280       O307   2.436       .  S
Zr280       O282   2.437       .  S
Zr280       O283   2.390       .  S
Zr280       O284   2.382       .  S
O281        H318   0.990       .  S
O282        H313   0.990       .  S
O282        H327   0.990       .  S
O284        H310   0.965       .  S
O285       Zr295   2.378       .  S
O286       Zr295   2.374       .  S
O286        H311   0.966       .  S
C287        C849   1.437       .  S
C288        C873   1.434       .  S
C289        C864   1.438       .  S
O290        H326   0.990       .  S
O291        C293   1.284       .  A
O292        C293   1.284       .  A
C293        C860   1.435       .  S
O294       Zr295   2.440       .  S
O294        H323   0.990       .  S
Zr295       O298   2.437       .  S
Zr295       O299   2.440       .  S
Zr295       O300   2.421       .  S
O296        C301   1.284       .  A
O297        H314   0.990       .  S
O297        H329   0.990       .  S
O298        H315   0.990       .  S
O299        H319   0.990       .  S
O299        H328   0.990       .  S
O300        C301   1.280       .  A
C301        C853   1.436       .  S
O302        H321   0.990       .  S
O302        H325   0.990       .  S
O303        H317   0.990       .  S
O303        H324   0.990       .  S
O304        C308   1.284       .  A
O305        C308   1.281       .  A
O306        H316   0.990       .  S
O307        H320   0.990       .  S
C308        C925   1.433       .  S
Zr331       O332   2.442       .  S
Zr331       O333   2.444       .  S
Zr331       O334   2.440       .  S
Zr331       O337   2.440       .  S
Zr331       O339   2.383       .  S
Zr331       O340   2.381       .  S
Zr331       O341   2.410       .  S
Zr331       O342   2.404       .  S
O332        H388   0.990       .  S
O332        H396   0.991       .  S
O333        C353   1.284       .  A
O334        C355   1.283       .  A
O335       Zr345   2.422       .  S
O335        C354   1.281       .  A
O336       Zr344   2.431       .  S
O336        C355   1.282       .  A
O337        C354   1.284       .  A
O338       Zr346   2.412       .  S
O338        C353   1.278       .  A
O339       Zr344   2.398       .  S
O339       Zr346   2.381       .  S
O340       Zr345   2.389       .  S
O340       Zr346   2.377       .  S
O340        H375   0.966       .  S
O341       Zr344   2.402       .  S
O341       Zr361   2.390       .  S
O341        H378   0.965       .  S
O342       Zr345   2.388       .  S
O342       Zr361   2.395       .  S
Zr343       O368   2.452       .  S
Zr343       O362   2.448       .  S
Zr343       O370   2.446       .  S
Zr343       O358   2.445       .  S
Zr343       O349   2.402       .  S
Zr343       O350   2.407       .  S
Zr343       O351   2.382       .  S
Zr343       O352   2.384       .  S
Zr344       O363   2.435       .  S
Zr344       O356   2.436       .  S
Zr344       O357   2.429       .  S
Zr344       O350   2.398       .  S
Zr344       O351   2.393       .  S
Zr345       O347   2.434       .  S
Zr345       O369   2.435       .  S
Zr345       O371   2.422       .  S
Zr345       O349   2.388       .  S
Zr345       O352   2.387       .  S
Zr346       O372   2.433       .  S
Zr346       O373   2.436       .  S
Zr346       O348   2.437       .  S
Zr346       O349   2.392       .  S
Zr346       O350   2.386       .  S
O347        H384   0.990       .  S
O348        H379   0.990       .  S
O348        H393   0.990       .  S
O350        H376   0.965       .  S
O351       Zr361   2.377       .  S
O352       Zr361   2.375       .  S
O352        H377   0.966       .  S
C353        C856   1.436       .  S
C354        C888   1.436       .  S
C355        C848   1.434       .  S
O356        H392   0.990       .  S
O357        C359   1.283       .  A
O358        C359   1.286       .  A
C359        C844   1.437       .  S
O360       Zr361   2.438       .  S
O360        H389   0.990       .  S
Zr361       O364   2.437       .  S
Zr361       O365   2.440       .  S
Zr361       O366   2.416       .  S
O362        C367   1.286       .  A
O363        H380   0.990       .  S
O363        H395   0.990       .  S
O364        H381   0.990       .  S
O365        H385   0.990       .  S
O365        H394   0.990       .  S
O366        C367   1.279       .  A
C367        C852   1.437       .  S
O368        H387   0.990       .  S
O368        H391   0.990       .  S
O369        H383   0.990       .  S
O369        H390   0.990       .  S
O370        C374   1.285       .  A
O371        C374   1.281       .  A
O372        H382   0.990       .  S
O373        H386   0.990       .  S
C374        C909   1.437       .  S
Zr397       O398   2.444       .  S
Zr397       O399   2.453       .  S
Zr397       O400   2.446       .  S
Zr397       O403   2.446       .  S
Zr397       O405   2.383       .  S
Zr397       O406   2.386       .  S
Zr397       O407   2.413       .  S
Zr397       O408   2.402       .  S
O398        H454   0.990       .  S
O398        H462   0.991       .  S
O399        C419   1.285       .  A
O400        C421   1.283       .  A
O401       Zr411   2.415       .  S
O401        C420   1.280       .  A
O402       Zr410   2.427       .  S
O402        C421   1.281       .  A
O403        C420   1.285       .  A
O404       Zr412   2.403       .  S
O404        C419   1.276       .  A
O405       Zr410   2.401       .  S
O405       Zr412   2.385       .  S
O406       Zr411   2.392       .  S
O406       Zr412   2.377       .  S
O406        H441   0.966       .  S
O407       Zr410   2.405       .  S
O407       Zr427   2.392       .  S
O407        H444   0.965       .  S
O408       Zr411   2.388       .  S
O408       Zr427   2.390       .  S
Zr409       O434   2.454       .  S
Zr409       O428   2.444       .  S
Zr409       O436   2.442       .  S
Zr409       O424   2.439       .  S
Zr409       O415   2.400       .  S
Zr409       O416   2.406       .  S
Zr409       O417   2.385       .  S
Zr409       O418   2.381       .  S
Zr410       O429   2.436       .  S
Zr410       O422   2.436       .  S
Zr410       O423   2.435       .  S
Zr410       O416   2.400       .  S
Zr410       O417   2.394       .  S
Zr411       O413   2.435       .  S
Zr411       O435   2.437       .  S
Zr411       O437   2.417       .  S
Zr411       O415   2.387       .  S
Zr411       O418   2.387       .  S
Zr412       O438   2.435       .  S
Zr412       O439   2.435       .  S
Zr412       O414   2.436       .  S
Zr412       O415   2.390       .  S
Zr412       O416   2.384       .  S
O413        H450   0.990       .  S
O414        H445   0.990       .  S
O414        H459   0.990       .  S
O416        H442   0.965       .  S
O417       Zr427   2.380       .  S
O418       Zr427   2.375       .  S
O418        H443   0.966       .  S
C419        C836   1.436       .  S
C420        C829   1.434       .  S
C421        C845   1.435       .  S
O422        H458   0.990       .  S
O423        C425   1.284       .  A
O424        C425   1.284       .  A
C425        C917   1.436       .  S
O426       Zr427   2.440       .  S
O426        H455   0.991       .  S
Zr427       O430   2.437       .  S
Zr427       O431   2.440       .  S
Zr427       O432   2.417       .  S
O428        C433   1.285       .  A
O429        H446   0.990       .  S
O429        H461   0.990       .  S
O430        H447   0.990       .  S
O431        H451   0.990       .  S
O431        H460   0.990       .  S
O432        C433   1.279       .  A
C433        C837   1.437       .  S
O434        H453   0.990       .  S
O434        H457   0.989       .  S
O435        H449   0.990       .  S
O435        H456   0.990       .  S
O436        C440   1.284       .  A
O437        C440   1.280       .  A
O438        H448   0.990       .  S
O439        H452   0.990       .  S
C440        C828   1.433       .  S
Zr463       O464   2.441       .  S
Zr463       O465   2.443       .  S
Zr463       O466   2.444       .  S
Zr463       O469   2.442       .  S
Zr463       O471   2.382       .  S
Zr463       O472   2.381       .  S
Zr463       O473   2.411       .  S
Zr463       O474   2.403       .  S
O464        H520   0.990       .  S
O464        H528   0.990       .  S
O465        C485   1.284       .  A
O466        C487   1.284       .  A
O467       Zr477   2.420       .  S
O467        C486   1.281       .  A
O468       Zr476   2.433       .  S
O468        C487   1.283       .  A
O469        C486   1.285       .  A
O470       Zr478   2.415       .  S
O470        C485   1.278       .  A
O471       Zr476   2.400       .  S
O471       Zr478   2.380       .  S
O472       Zr477   2.391       .  S
O472       Zr478   2.374       .  S
O472        H507   0.966       .  S
O473       Zr476   2.404       .  S
O473       Zr493   2.391       .  S
O473        H510   0.965       .  S
O474       Zr477   2.389       .  S
O474       Zr493   2.394       .  S
Zr475       O500   2.451       .  S
Zr475       O494   2.447       .  S
Zr475       O502   2.443       .  S
Zr475       O490   2.444       .  S
Zr475       O481   2.402       .  S
Zr475       O482   2.405       .  S
Zr475       O483   2.383       .  S
Zr475       O484   2.385       .  S
Zr476       O495   2.435       .  S
Zr476       O488   2.435       .  S
Zr476       O489   2.433       .  S
Zr476       O482   2.397       .  S
Zr476       O483   2.394       .  S
Zr477       O479   2.435       .  S
Zr477       O501   2.435       .  S
Zr477       O503   2.424       .  S
Zr477       O481   2.386       .  S
Zr477       O484   2.386       .  S
Zr478       O504   2.436       .  S
Zr478       O505   2.436       .  S
Zr478       O480   2.436       .  S
Zr478       O481   2.392       .  S
Zr478       O482   2.389       .  S
O479        H516   0.990       .  S
O480        H511   0.990       .  S
O480        H525   0.990       .  S
O482        H508   0.965       .  S
O483       Zr493   2.379       .  S
O484       Zr493   2.378       .  S
O484        H509   0.966       .  S
C485        C840   1.437   1_556  S
C486        C821   1.437       .  S
C487        C861   1.437       .  S
O488        H524   0.990       .  S
O489        C491   1.283       .  A
O490        C491   1.285       .  A
C491        C904   1.439       .  S
O492       Zr493   2.440       .  S
O492        H521   0.990       .  S
Zr493       O496   2.437       .  S
Zr493       O497   2.441       .  S
Zr493       O498   2.417       .  S
O494        C499   1.286       .  A
O495        H512   0.990       .  S
O495        H527   0.990       .  S
O496        H513   0.990       .  S
O497        H517   0.990       .  S
O497        H526   0.990       .  S
O498        C499   1.280       .  A
C499        C833   1.437       .  S
O500        H519   0.990       .  S
O500        H523   0.990       .  S
O501        H515   0.990       .  S
O501        H522   0.990       .  S
O502        C506   1.284       .  A
O503        C506   1.281       .  A
O504        H514   0.990       .  S
O505        H518   0.990       .  S
C506        C817   1.436       .  S
Zr529       O530   2.442       .  S
Zr529       O531   2.448       .  S
Zr529       O532   2.453       .  S
Zr529       O535   2.451       .  S
Zr529       O537   2.383       .  S
Zr529       O538   2.386       .  S
Zr529       O539   2.411       .  S
Zr529       O540   2.401       .  S
O530        H586   0.990       .  S
O530        H594   0.991       .  S
O531        C551   1.284       .  A
O532        C553   1.285       .  A
O533       Zr543   2.414       .  S
O533        C552   1.279       .  A
O534       Zr542   2.423       .  S
O534        C553   1.280       .  A
O535        C552   1.286       .  A
O536       Zr544   2.408       .  S
O536        C551   1.277       .  A
O537       Zr542   2.400       .  S
O537       Zr544   2.385       .  S
O538       Zr543   2.392       .  S
O538       Zr544   2.380       .  S
O538        H573   0.966       .  S
O539       Zr542   2.404       .  S
O539       Zr559   2.390       .  S
O539        H576   0.965       .  S
O540       Zr543   2.388       .  S
O540       Zr559   2.390       .  S
Zr541       O566   2.450       .  S
Zr541       O560   2.443       .  S
Zr541       O568   2.438       .  S
Zr541       O556   2.436       .  S
Zr541       O547   2.400       .  S
Zr541       O548   2.404       .  S
Zr541       O549   2.381       .  S
Zr541       O550   2.382       .  S
Zr542       O561   2.435       .  S
Zr542       O554   2.435       .  S
Zr542       O555   2.433       .  S
Zr542       O548   2.395       .  S
Zr542       O549   2.390       .  S
Zr543       O545   2.437       .  S
Zr543       O567   2.438       .  S
Zr543       O569   2.416       .  S
Zr543       O547   2.385       .  S
Zr543       O550   2.388       .  S
Zr544       O570   2.436       .  S
Zr544       O571   2.437       .  S
Zr544       O546   2.438       .  S
Zr544       O547   2.391       .  S
Zr544       O548   2.385       .  S
O545        H582   0.990       .  S
O546        H577   0.990       .  S
O546        H591   0.990       .  S
O548        H574   0.965       .  S
O549       Zr559   2.378       .  S
O550       Zr559   2.373       .  S
O550        H575   0.966       .  S
C551        C809   1.435   1_554  S
C552        C808   1.435       .  S
C553        C857   1.436       .  S
O554        H590   0.990       .  S
O555        C557   1.284       .  A
O556        C557   1.284       .  A
C557        C880   1.436       .  S
O558       Zr559   2.438       .  S
O558        H587   0.990       .  S
Zr559       O562   2.437       .  S
Zr559       O563   2.438       .  S
Zr559       O564   2.418       .  S
O560        C565   1.285       .  A
O561        H578   0.990       .  S
O561        H593   0.990       .  S
O562        H579   0.990       .  S
O563        H583   0.990       .  S
O563        H592   0.990       .  S
O564        C565   1.279       .  A
C565        C813   1.436       .  S
O566        H585   0.990       .  S
O566        H589   0.990       .  S
O567        H581   0.990       .  S
O567        H588   0.990       .  S
O568        C572   1.284       .  A
O569        C572   1.280       .  A
O570        H580   0.990       .  S
O571        H584   0.990       .  S
C572        C825   1.431       .  S
Zr595       O596   2.441       .  S
Zr595       O597   2.449       .  S
Zr595       O598   2.452       .  S
Zr595       O601   2.448       .  S
Zr595       O603   2.384       .  S
Zr595       O604   2.385       .  S
Zr595       O605   2.411       .  S
Zr595       O606   2.403       .  S
O596        H652   0.990       .  S
O596        H660   0.991       .  S
O597        C617   1.284       .  A
O598        C619   1.285       .  A
O599       Zr609   2.415       .  S
O599        C618   1.280       .  A
O600       Zr608   2.424       .  S
O600        C619   1.281       .  A
O601        C618   1.285       .  A
O602       Zr610   2.406       .  S
O602        C617   1.277       .  A
O603       Zr608   2.401       .  S
O603       Zr610   2.386       .  S
O604       Zr609   2.391       .  S
O604       Zr610   2.378       .  S
O604        H639   0.966       .  S
O605       Zr608   2.402       .  S
O605       Zr625   2.391       .  S
O605        H642   0.965       .  S
O606       Zr609   2.389       .  S
O606       Zr625   2.389       .  S
Zr607       O632   2.451       .  S
Zr607       O626   2.439       .  S
Zr607       O634   2.442       .  S
Zr607       O622   2.439       .  S
Zr607       O613   2.402       .  S
Zr607       O614   2.404       .  S
Zr607       O615   2.383       .  S
Zr607       O616   2.384       .  S
Zr608       O627   2.435       .  S
Zr608       O620   2.435       .  S
Zr608       O621   2.434       .  S
Zr608       O614   2.396       .  S
Zr608       O615   2.390       .  S
Zr609       O611   2.437       .  S
Zr609       O633   2.439       .  S
Zr609       O635   2.415       .  S
Zr609       O613   2.387       .  S
Zr609       O616   2.389       .  S
Zr610       O636   2.435       .  S
Zr610       O637   2.436       .  S
Zr610       O612   2.437       .  S
Zr610       O613   2.391       .  S
Zr610       O614   2.383       .  S
O611        H648   0.990       .  S
O612        H643   0.990       .  S
O612        H657   0.990       .  S
O614        H640   0.965       .  S
O615       Zr625   2.379       .  S
O616       Zr625   2.374       .  S
O616        H641   0.966       .  S
C617        C812   1.435       .  S
C618        C820   1.435       .  S
C619        C865   1.437       .  S
O620        H656   0.990       .  S
O621        C623   1.284       .  A
O622        C623   1.284       .  A
C623        C841   1.437       .  S
O624       Zr625   2.439       .  S
O624        H653   0.990       .  S
Zr625       O628   2.438       .  S
Zr625       O629   2.439       .  S
Zr625       O630   2.420       .  S
O626        C631   1.285       .  A
O627        H644   0.990       .  S
O627        H659   0.990       .  S
O628        H645   0.990       .  S
O629        H649   0.990       .  S
O629        H658   0.990       .  S
O630        C631   1.280       .  A
C631        C816   1.436       .  S
O632        H651   0.990       .  S
O632        H655   0.990       .  S
O633        H647   0.990       .  S
O633        H654   0.990       .  S
O634        C638   1.284       .  A
O635        C638   1.280       .  A
O636        H646   0.990       .  S
O637        H650   0.990       .  S
C638        C804   1.432       .  S
Zr661       O662   2.440       .  S
Zr661       O663   2.444       .  S
Zr661       O664   2.437       .  S
Zr661       O667   2.442       .  S
Zr661       O669   2.383       .  S
Zr661       O670   2.381       .  S
Zr661       O671   2.410       .  S
Zr661       O672   2.401   1_556  S
O662        H718   0.990       .  S
O662        H726   0.991       .  S
O663        C683   1.284       .  A
O664        C685   1.282       .  A
O665       Zr675   2.417   1_556  S
O665        C684   1.281       .  A
O666       Zr674   2.434       .  S
O666        C685   1.283       .  A
O667        C684   1.284       .  A
O668       Zr676   2.414       .  S
O668        C683   1.278       .  A
O669       Zr674   2.399       .  S
O669       Zr676   2.381       .  S
O670       Zr675   2.391   1_556  S
O670       Zr676   2.376       .  S
O670        H705   0.966       .  S
O671       Zr674   2.401       .  S
O671       Zr691   2.389   1_556  S
O671        H708   0.965   1_556  S
O672       Zr675   2.386       .  S
O672       Zr691   2.393       .  S
Zr673       O698   2.451       .  S
Zr673       O692   2.448       .  S
Zr673       O700   2.445       .  S
Zr673       O688   2.444       .  S
Zr673       O679   2.402   1_554  S
Zr673       O680   2.406   1_554  S
Zr673       O681   2.383       .  S
Zr673       O682   2.383       .  S
Zr674       O693   2.436   1_556  S
Zr674       O686   2.435       .  S
Zr674       O687   2.429   1_556  S
Zr674       O680   2.399       .  S
Zr674       O681   2.394   1_556  S
Zr675       O677   2.434       .  S
Zr675       O699   2.436   1_554  S
Zr675       O701   2.418       .  S
Zr675       O679   2.387   1_554  S
Zr675       O682   2.386       .  S
Zr676       O702   2.435       .  S
Zr676       O703   2.436       .  S
Zr676       O678   2.437       .  S
Zr676       O679   2.391       .  S
Zr676       O680   2.389       .  S
O677        H714   0.990       .  S
O678        H709   0.990       .  S
O678        H723   0.990       .  S
O680        H706   0.965       .  S
O681       Zr691   2.378       .  S
O682       Zr691   2.375       .  S
O682        H707   0.966       .  S
C683        C793   1.436       .  S
C684        C824   1.436       .  S
C685        C872   1.434       .  S
O686        H722   0.990       .  S
O687        C689   1.283       .  A
O688        C689   1.285       .  A
C689        C913   1.437       .  S
O690       Zr691   2.438       .  S
O690        H719   0.990       .  S
Zr691       O694   2.436       .  S
Zr691       O695   2.440       .  S
Zr691       O696   2.416       .  S
O692        C697   1.286       .  A
O693        H710   0.990       .  S
O693        H725   0.990       .  S
O694        H711   0.990       .  S
O695        H715   0.990       .  S
O695        H724   0.990       .  S
O696        C697   1.279       .  A
C697        C797   1.437       .  S
O698        H717   0.990       .  S
O698        H721   0.990       .  S
O699        H713   0.990       .  S
O699        H720   0.990       .  S
O700        C704   1.285       .  A
O701        C704   1.281       .  A
O702        H712   0.990       .  S
O703        H716   0.990       .  S
C704        C805   1.435       .  S
Zr727       O728   2.441       .  S
Zr727       O729   2.456       .  S
Zr727       O730   2.449       .  S
Zr727       O733   2.446       .  S
Zr727       O735   2.381       .  S
Zr727       O736   2.386       .  S
Zr727       O737   2.414       .  S
Zr727       O738   2.403       .  S
O728        H784   0.990       .  S
O728        H792   0.991       .  S
O729        C749   1.286       .  A
O730        C751   1.284       .  A
O731       Zr741   2.415       .  S
O731        C750   1.280       .  A
O732       Zr740   2.428       .  S
O732        C751   1.282       .  A
O733        C750   1.285       .  A
O734       Zr742   2.404       .  S
O734        C749   1.276       .  A
O735       Zr740   2.401       .  S
O735       Zr742   2.384       .  S
O736       Zr741   2.393       .  S
O736       Zr742   2.379       .  S
O736        H771   0.966       .  S
O737       Zr740   2.404       .  S
O737       Zr757   2.393       .  S
O737        H774   0.965       .  S
O738       Zr741   2.387       .  S
O738       Zr757   2.390       .  S
Zr739       O764   2.449       .  S
Zr739       O758   2.438       .  S
Zr739       O766   2.438       .  S
Zr739       O754   2.441       .  S
Zr739       O745   2.401       .  S
Zr739       O746   2.403       .  S
Zr739       O747   2.383       .  S
Zr739       O748   2.383       .  S
Zr740       O759   2.437       .  S
Zr740       O752   2.436       .  S
Zr740       O753   2.434       .  S
Zr740       O746   2.397       .  S
Zr740       O747   2.392       .  S
Zr741       O743   2.436       .  S
Zr741       O765   2.436       .  S
Zr741       O767   2.421       .  S
Zr741       O745   2.386       .  S
Zr741       O748   2.386       .  S
Zr742       O768   2.435       .  S
Zr742       O769   2.435       .  S
Zr742       O744   2.436       .  S
Zr742       O745   2.391       .  S
Zr742       O746   2.385       .  S
O743        H780   0.990       .  S
O744        H775   0.990       .  S
O744        H789   0.990       .  S
O746        H772   0.965       .  S
O747       Zr757   2.378       .  S
O748       Zr757   2.373       .  S
O748        H773   0.966       .  S
C749        C800   1.438       .  S
C750        C832   1.433       .  S
C751        C881   1.437       .  S
O752        H788   0.990       .  S
O753        C755   1.284       .  A
O754        C755   1.285       .  A
C755        C897   1.437       .  S
O756       Zr757   2.440       .  S
O756        H785   0.990       .  S
Zr757       O760   2.436       .  S
Zr757       O761   2.440       .  S
Zr757       O762   2.423       .  S
O758        C763   1.284       .  A
O759        H776   0.990       .  S
O759        H791   0.990       .  S
O760        H777   0.990       .  S
O761        H781   0.990       .  S
O761        H790   0.990       .  S
O762        C763   1.280       .  A
C763        C796   1.436       .  S
O764        H783   0.990       .  S
O764        H787   0.990       .  S
O765        H779   0.990       .  S
O765        H786   0.990       .  S
O766        C770   1.284       .  A
O767        C770   1.281       .  A
O768        H778   0.990       .  S
O769        H782   0.990       .  S
C770        C801   1.433       .  S
C793        C794   1.207       .  T
C794        C795   1.414       .  S
C795        C796   1.207       .  T
C797        C798   1.208       .  T
C798        C799   1.415       .  S
C799        C800   1.208       .  T
C801        C802   1.204       .  T
C802        C803   1.410       .  S
C803        C804   1.204       .  T
C805        C806   1.206       .  T
C806        C807   1.412       .  S
C807        C808   1.206       .  T
C809        C810   1.206       .  T
C810        C811   1.412       .  S
C811        C812   1.206       .  T
C813        C814   1.207       .  T
C814        C815   1.414       .  S
C815        C816   1.207       .  T
C817        C818   1.206       .  T
C818        C819   1.412       .  S
C819        C820   1.206       .  T
C821        C822   1.207       .  T
C822        C823   1.414       .  S
C823        C824   1.207       .  T
C825        C826   1.204       .  T
C826        C827   1.409       .  S
C827        C828   1.204       .  T
C829        C830   1.205       .  T
C830        C831   1.411       .  S
C831        C832   1.205       .  T
C833        C834   1.207       .  T
C834        C835   1.414       .  S
C835        C836   1.207       .  T
C837        C838   1.207       .  T
C838        C839   1.414       .  S
C839        C840   1.207       .  T
C841        C842   1.207       .  T
C842        C843   1.415   1_655  S
C843        C844   1.207       .  T
C845        C846   1.206       .  T
C846        C847   1.412       .  S
C847        C848   1.206       .  T
C849        C850   1.207       .  T
C850        C851   1.415       .  S
C851        C852   1.207       .  T
C853        C854   1.206       .  T
C854        C855   1.413       .  S
C855        C856   1.206       .  T
C857        C858   1.206       .  T
C858        C859   1.413   1_655  S
C859        C860   1.206       .  T
C861        C862   1.207       .  T
C862        C863   1.415       .  S
C863        C864   1.207       .  T
C865        C866   1.207       .  T
C866        C867   1.414   1_545  S
C867        C868   1.206       .  T
C869        C870   1.206       .  T
C870        C871   1.412       .  S
C871        C872   1.206       .  T
C873        C874   1.205       .  T
C874        C875   1.411       .  S
C875        C876   1.205       .  T
C877        C878   1.207       .  T
C878        C879   1.414   1_565  S
C879        C880   1.207       .  T
C881        C882   1.207       .  T
C882        C883   1.414       .  S
C883        C884   1.207       .  T
C885        C886   1.206       .  T
C886        C887   1.413       .  S
C887        C888   1.206       .  T
C889        C890   1.207       .  T
C890        C891   1.414       .  S
C891        C892   1.207       .  T
C893        C894   1.207       .  T
C894        C895   1.415       .  S
C895        C896   1.208       .  T
C897        C898   1.207       .  T
C898        C899   1.414   1_655  S
C899        C900   1.207       .  T
C901        C902   1.208       .  T
C902        C903   1.415   1_565  S
C903        C904   1.208       .  T
C905        C906   1.205       .  T
C906        C907   1.410       .  S
C907        C908   1.204       .  T
C909        C910   1.207       .  T
C910        C911   1.414       .  S
C911        C912   1.207       .  T
C913        C914   1.207       .  T
C914        C915   1.414   1_655  S
C915        C916   1.207       .  T
C917        C918   1.206       .  T
C918        C919   1.413   1_545  S
C919        C920   1.206       .  T
C921        C922   1.207       .  T
C922        C923   1.413       .  S
C923        C924   1.206       .  T
C925        C926   1.204       .  T
C926        C927   1.410       .  S
C927        C928   1.204       .  T
C929        C930   1.206       .  T
C930        C931   1.413       .  S
C931        C932   1.206       .  T
C933        C934   1.206       .  T
C934        C935   1.412       .  S
C935        C936   1.206       .  T
