geometry optimzed in LAMMPS
_audit_creation_date              2020-11-30 
_audit_creation_method            'lammps2cif' 
_symmetry_space_group_name_H-M    'P1' 
_symmetry_Int_Tables_number       1 
_symmetry_cell_setting            triclinic 
loop_ 
_symmetry_equiv_pos_as_xyz 
  x,y,z 
_cell_length_a                    39.1068419 
_cell_length_b                    37.79426018126384 
_cell_length_c                    40.46775446026816 
_cell_angle_alpha                 90.10905570651242 
_cell_angle_beta                  89.88316700217236 
_cell_angle_gamma                 90.14154010487549 
loop_ 
_atom_site_label 
_atom_site_type_symbol 
_atom_site_fract_x 
_atom_site_fract_y 
_atom_site_fract_z 
_atom_site_charge 
N1          N  0.93801076  0.00968002  0.24907736    -0.36800
N2          N  0.99636391  0.05823442  0.25235238    -0.57300
N3          N  0.04095407  0.99667128  0.25368706    -0.36700
N4          N  0.98333420  0.94860511  0.25359770    -0.57300
C5          C  0.92138053  0.04105126  0.25064201     0.26800
C6          C  0.91444384  0.98345916  0.25172532     0.26800
C7          C  0.06319099  0.02286434  0.26099175     0.26800
C8          C  0.05665901  0.96584594  0.26075765     0.26800
C9          C  0.97186715  0.08119799  0.24283942     0.35400
C10         C  0.02675414  0.07383446  0.24563882     0.35500
C11         C  0.95383019  0.93138402  0.24714462     0.35400
C12         C  0.00867721  0.92492571  0.24871675     0.35500
C13         C  0.88663979  0.03464046  0.25453205    -0.22000
C14         C  0.88228625  0.99838553  0.25517802    -0.22000
C15         C  0.09324390  0.00858329  0.27319461    -0.22000
C16         C  0.08920034  0.97248924  0.27281904    -0.22000
C17         C  0.98683954  0.11192335  0.23078675    -0.23100
C18         C  0.02164832  0.10716182  0.23240909    -0.23100
C19         C  0.96053028  0.89627824  0.23925486    -0.23100
C20         C  0.99529638  0.89226310  0.24012657    -0.23100
C21         C  0.93617809  0.07498977  0.24503675    -0.18400
C22         C  0.92080905  0.94660419  0.24815697    -0.18400
C23         C  0.04373885  0.93207295  0.25297223    -0.18400
C24         C  0.05896989  0.05860287  0.25225390    -0.18400
H25         H  0.86635331  0.05404137  0.25558421     0.14500
H26         H  0.85806798  0.98458489  0.25691778     0.14500
H27         H  0.11622914  0.02267620  0.28027346     0.14500
H28         H  0.10841697  0.95336502  0.27974786     0.14500
H29         H  0.97403361  0.13509956  0.22124119     0.12800
H30         H  0.04095940  0.12595336  0.22460434     0.12800
H31         H  0.94233761  0.87570534  0.23304865     0.12800
H32         H  0.00911220  0.86806554  0.23505965     0.12800
H33         H  0.96333644  0.00639103  0.24248951     0.26000
H34         H  0.01907607  0.99935613  0.23942796     0.26000
Zr35       Zr  0.28595347  0.28484469  0.22469938     2.17500
O36         O  0.34232223  0.30580416  0.24197345    -0.51500
O37         O  0.26411788  0.32773211  0.26412279    -0.74700
O38         O  0.30788715  0.33389432  0.19228047    -0.81500
O39         O  0.29487197  0.20460833  0.28194920    -0.83200
O40         O  0.28004236  0.33915223  0.14347587    -0.78800
O41         O  0.31801124  0.25799389  0.26938686    -0.90500
O42         O  0.20664539  0.32194607  0.26783926    -0.76400
O43         O  0.23527245  0.30779224  0.20036773    -0.85900
O44         O  0.24025312  0.25606091  0.25286706    -0.85600
O45         O  0.28980886  0.26958377  0.16705242    -0.72400
O46         O  0.29516269  0.22276698  0.21621063    -0.84500
Zr47       Zr  0.20000530  0.20163427  0.16199632     2.26400
Zr48       Zr  0.23771575  0.29150484  0.14290252     2.06300
Zr49       Zr  0.24825319  0.19405101  0.24328037     2.10000
Zr50       Zr  0.18958984  0.27843331  0.22794506     1.78800
O51         O  0.27782299  0.13739552  0.24232702    -0.93300
O52         O  0.16176972  0.33187290  0.20793663    -0.41100
O53         O  0.19663178  0.21638129  0.21953428    -0.77800
O54         O  0.19072465  0.26354059  0.17072739    -0.96400
O55         O  0.24592673  0.22960877  0.13371399    -0.89700
O56         O  0.25065206  0.17795742  0.18603505    -0.92600
C57         C  0.23494261  0.33615694  0.27627721     1.01200
C58         C  0.31698771  0.22933786  0.28636753     1.14100
C59         C  0.30318162  0.34874915  0.16417069     1.04900
O60         O  0.20646798  0.34665477  0.13640858    -0.94700
O61         O  0.19159421  0.28038234  0.10284059    -0.90500
O62         O  0.17023783  0.22598248  0.11475433    -0.83600
C63         C  0.17087875  0.25437586  0.09752910     1.11500
O64         O  0.35775777  0.21859800  0.16261777    -0.96700
Zr65       Zr  0.29647515  0.20746108  0.15890136     1.88900
O66         O  0.21999447  0.16069350  0.12000780    -0.73400
O67         O  0.26201505  0.29257664  0.08750283    -0.52600
O68         O  0.32845701  0.22253502  0.10920543    -0.97300
O69         O  0.32322149  0.15222058  0.17583713    -0.54500
O70         O  0.27741373  0.16731338  0.11646232    -0.73900
C71         C  0.24906153  0.15413388  0.10662347     0.98500
O72         O  0.14145491  0.17983331  0.15672527    -0.62700
O73         O  0.23270839  0.18573134  0.30109587    -0.57500
O74         O  0.17665892  0.15372090  0.19383600    -0.94200
O75         O  0.20005717  0.15282462  0.24512433    -0.92600
O76         O  0.15999212  0.26410771  0.27922649    -0.93000
O77         O  0.12809869  0.26965697  0.22301676    -0.91700
C78         C  0.17845277  0.14199688  0.22338602     1.17300
H79         H  0.24086930  0.26092199  0.27639712     0.33300
H80         H  0.16914104  0.27096990  0.16169271     0.44100
H81         H  0.25175977  0.15262125  0.18305572     0.37600
H82         H  0.30952670  0.28016074  0.15684306     0.34100
H83         H  0.14758095  0.34013511  0.22669207     0.25900
H84         H  0.25895232  0.31722660  0.07985838     0.31800
H85         H  0.31109131  0.23189240  0.09380227     0.37700
H86         H  0.17781857  0.25390886  0.29366771     0.32200
H87         H  0.20800142  0.19122357  0.30224339     0.31100
H88         H  0.27734988  0.12918308  0.26553767     0.32800
H89         H  0.34052286  0.15904386  0.19252058     0.31700
H90         H  0.12564562  0.24660660  0.21158580     0.35700
H91         H  0.12674566  0.20112799  0.15658037     0.28500
H92         H  0.33950890  0.33115452  0.24761750     0.32700
H93         H  0.36070251  0.23154551  0.18371859     0.35500
H94         H  0.23406943  0.15987752  0.30478366     0.28200
H95         H  0.13957588  0.16965813  0.13424713     0.41000
H96         H  0.21639050  0.35766112  0.11636820     0.31100
H97         H  0.18026492  0.34969904  0.20613805     0.38700
H98         H  0.33670583  0.14462459  0.15634796     0.30600
H99         H  0.28692851  0.29010964  0.09089952     0.30600
H100        H  0.35699666  0.30542033  0.22200919     0.30900
Zr101      Zr  0.70324209  0.30324904  0.22228714     2.17500
O102        O  0.69087201  0.36605328  0.22975584    -0.51500
O103        O  0.66251744  0.28440069  0.26493539    -0.74700
O104        O  0.65110954  0.32238175  0.19464563    -0.81500
O105        O  0.78454564  0.31599954  0.27271370    -0.83200
O106        O  0.64443275  0.29129362  0.14699065    -0.78800
O107        O  0.73028029  0.33637022  0.26655669    -0.90500
O108        O  0.66771948  0.22513912  0.27050833    -0.76400
O109        O  0.67971911  0.24862276  0.20390512    -0.85900
O110        O  0.73424336  0.25876369  0.25116595    -0.85600
O111        O  0.71351045  0.30254955  0.16354740    -0.72400
O112        O  0.76245796  0.31061273  0.20728018    -0.84500
Zr113      Zr  0.77899919  0.20897506  0.15806801     2.26400
Zr114      Zr  0.69004711  0.24703730  0.14551885     2.06300
Zr115      Zr  0.79315216  0.26516015  0.23569942     2.10000
Zr116      Zr  0.71110124  0.20425804  0.23229719     1.78800
O117        O  0.84606563  0.29917665  0.23223205    -0.93300
O118        O  0.66119151  0.16785039  0.22021871    -0.41100
O119        O  0.77002134  0.20990411  0.21698055    -0.77800
O120        O  0.72005701  0.20090618  0.17384159    -0.96400
O121        O  0.74880830  0.25383657  0.12956556    -0.89700
O122        O  0.80354568  0.26299608  0.17713299    -0.92600
C123        C  0.65401636  0.25482364  0.27833485     1.01200
C124        C  0.75998416  0.33735558  0.28001395     1.14100
C125        C  0.63554785  0.31581609  0.16737319     1.04900
O126        O  0.63656119  0.21410999  0.14837042    -0.94700
O127        O  0.69636274  0.19740868  0.10740926    -0.90500
O128        O  0.74908749  0.17463008  0.11644027    -0.83600
C129        C  0.72011881  0.17480323  0.10160198     1.11500
O130        O  0.75866334  0.37060210  0.14637845    -0.96700
Zr131      Zr  0.77274586  0.30784305  0.14882437     1.88900
O132        O  0.82109698  0.22812091  0.11638592    -0.73400
O133        O  0.68224136  0.26522667  0.08837613    -0.52600
O134        O  0.75333501  0.32460956  0.09385465    -0.97300
O135        O  0.82200586  0.34469829  0.16238228    -0.54500
O136        O  0.81639095  0.28734238  0.11022658    -0.73900
C137        C  0.83008223  0.25753288  0.10281721     0.98500
O138        O  0.79649606  0.15054153  0.13860394    -0.62700
O139        O  0.80374976  0.24896671  0.29297201    -0.57500
O140        O  0.82311896  0.18274180  0.19178490    -0.94200
O141        O  0.83541149  0.21672507  0.23634974    -0.92600
O142        O  0.72982339  0.18377777  0.28640228    -0.93000
O143        O  0.72509835  0.14154273  0.23399731    -0.91700
C144        C  0.84046274  0.18932155  0.21793381     1.17300
H145        H  0.73147797  0.26139144  0.27479152     0.33300
H146        H  0.71176063  0.17787966  0.16710222     0.44100
H147        H  0.82776977  0.26396975  0.17251889     0.37600
H148        H  0.70198404  0.32209054  0.15303450     0.34100
H149        H  0.65485256  0.15716384  0.24170546     0.25900
H150        H  0.65804285  0.25965766  0.08339019     0.31800
H151        H  0.77379027  0.33450244  0.08271576     0.37700
H152        H  0.72489511  0.20346966  0.30184249     0.32200
H153        H  0.79819930  0.22342577  0.29419311     0.31100
H154        H  0.86157008  0.28492411  0.21819442     0.32800
H155        H  0.84167856  0.32828814  0.16253569     0.31700
H156        H  0.74834613  0.14000944  0.22435817     0.35700
H157        H  0.82150256  0.15195836  0.13492673     0.28500
H158        H  0.66744821  0.36725761  0.23904649     0.32700
H159        H  0.77409287  0.38081975  0.12945182     0.35500
H160        H  0.82887288  0.25031123  0.29558142     0.28200
H161        H  0.79346093  0.13433398  0.15759116     0.41000
H162        H  0.64348745  0.18952959  0.15336531     0.31100
H163        H  0.64269417  0.18501321  0.21575265     0.38700
H164        H  0.81870213  0.35111480  0.18590337     0.30600
H165        H  0.68343097  0.29137475  0.08888469     0.30600
H166        H  0.68905756  0.37604228  0.20721794     0.30900
Zr167      Zr  0.70416506  0.69845967  0.22384044     2.17500
O168        O  0.69088035  0.63612701  0.23345374    -0.51500
O169        O  0.65938075  0.71155998  0.26460768    -0.74700
O170        O  0.73486526  0.67378053  0.27044626    -0.81500
O171        O  0.65472068  0.69140402  0.14218194    -0.83200
O172        O  0.78081024  0.70802884  0.28327313    -0.78800
O173        O  0.66415267  0.66423301  0.19133242    -0.90500
O174        O  0.65056561  0.77055276  0.26643863    -0.76400
O175        O  0.72155684  0.75035549  0.25239032    -0.85900
O176        O  0.67190019  0.74490328  0.19950167    -0.85600
O177        O  0.76499790  0.70230165  0.21426084    -0.72400
O178        O  0.71942477  0.69872884  0.16627207    -0.84500
Zr179      Zr  0.76566556  0.80369812  0.16190976     2.26400
Zr180      Zr  0.78199060  0.75559761  0.24246073     2.06300
Zr181      Zr  0.68785480  0.74631164  0.14220285     2.10000
Zr182      Zr  0.68990696  0.79700191  0.22755939     1.78800
O183        O  0.69201780  0.72200832  0.08657632    -0.93300
O184        O  0.70226012  0.82594348  0.28003626    -0.41100
O185        O  0.70501945  0.79921533  0.17028252    -0.77800
O186        O  0.74999909  0.80347053  0.21922659    -0.96400
O187        O  0.79801907  0.75679558  0.18525219    -0.89700
O188        O  0.74813027  0.75208516  0.13259063    -0.92600
C189        C  0.64413627  0.73908511  0.27620617     1.01200
C190        C  0.65006418  0.66598783  0.16280030     1.14100
C191        C  0.76097062  0.68138548  0.28821084     1.04900
O192        O  0.78156797  0.78297091  0.29694820    -0.94700
O193        O  0.81830030  0.80858699  0.24177169    -0.90500
O194        O  0.80806435  0.83645084  0.19328066    -0.83600
C195        C  0.82305765  0.83429049  0.22142306     1.11500
O196        O  0.77849577  0.64059342  0.15696938    -0.96700
Zr197      Zr  0.77964414  0.70504120  0.15668191     1.88900
O198        O  0.81157836  0.79271138  0.12253927    -0.73400
O199        O  0.84061448  0.73462763  0.24724343    -0.52600
O200        O  0.83425397  0.68146532  0.17515426    -0.97300
O201        O  0.77117103  0.67620795  0.10330810    -0.54500
O202        O  0.82095996  0.73366205  0.12026701    -0.73900
C203        C  0.82758348  0.76553937  0.11142490     0.98500
O204        O  0.77245323  0.86758857  0.15579979    -0.62700
O205        O  0.62829225  0.76387678  0.13571751    -0.57500
O206        O  0.73568582  0.82769665  0.11475226    -0.94200
O207        O  0.68622249  0.79768505  0.10533323    -0.92600
O208        O  0.63407306  0.81954547  0.21143759    -0.93000
O209        O  0.68722221  0.86107395  0.22234175    -0.91700
C210        C  0.70741867  0.82301645  0.09936764     1.17300
H211        H  0.64763974  0.74076264  0.20206960     0.33300
H212        H  0.75616860  0.82559884  0.22965979     0.44100
H213        H  0.75290175  0.75423286  0.10920886     0.37600
H214        H  0.77670242  0.68203373  0.22327430     0.21700
H215        H  0.67963206  0.83303383  0.28880716     0.25900
H216        H  0.84578794  0.73599319  0.27115348     0.31800
H217        H  0.84981158  0.70215813  0.17575484     0.37700
H218        H  0.61899100  0.79850861  0.21033379     0.32200
H219        H  0.62287979  0.75860003  0.11233006     0.31100
H220        H  0.66859596  0.72382450  0.07751906     0.32800
H221        H  0.79137531  0.68253925  0.08976663     0.31700
H222        H  0.70633295  0.86717339  0.20729175     0.35700
H223        H  0.78299390  0.87119143  0.13377760     0.28500
H224        H  0.68298109  0.63452480  0.25666622     0.32700
H225        H  0.76897110  0.63420364  0.17885482     0.35500
H226        H  0.61477195  0.74641549  0.14847696     0.28200
H227        H  0.74908574  0.87742886  0.15401079     0.41000
H228        H  0.80335597  0.77553770  0.30720756     0.31100
H229        H  0.70976007  0.80662797  0.29482038     0.38700
H230        H  0.75196841  0.68900678  0.09292882     0.30600
H231        H  0.83926836  0.70896576  0.24244342     0.30600
H232        H  0.71306087  0.62354237  0.23287242     0.30900
Zr233      Zr  0.27656220  0.70191363  0.22452306     2.17500
O234        O  0.28202017  0.63774467  0.22873546    -0.51500
O235        O  0.31931798  0.71441678  0.26680360    -0.74700
O236        O  0.32584749  0.67927188  0.19493869    -0.81500
O237        O  0.20029250  0.70154591  0.28358943    -0.83200
O238        O  0.33188239  0.70920170  0.14669966    -0.78800
O239        O  0.25028176  0.67385598  0.27092332    -0.90500
O240        O  0.32147422  0.77365599  0.27458351    -0.76400
O241        O  0.30502755  0.75187597  0.20248324    -0.85900
O242        O  0.25539923  0.75058567  0.25579028    -0.85600
O243        O  0.26028477  0.70234950  0.16741918    -0.72400
O244        O  0.21561503  0.70186442  0.21694510    -0.84500
Zr245      Zr  0.20740936  0.80453183  0.16866578     2.26400
Zr246      Zr  0.28773669  0.75428355  0.14584857     2.06300
Zr247      Zr  0.19488684  0.75204545  0.24711616     2.10000
Zr248      Zr  0.28414709  0.80056717  0.23361373     1.78800
O249        O  0.13752116  0.72719478  0.25139613    -0.93300
O250        O  0.34121438  0.81913807  0.21637626    -0.41100
O251        O  0.22335525  0.80317381  0.22577328    -0.77800
O252        O  0.26819346  0.80457680  0.17655967    -0.96400
O253        O  0.22726861  0.75552232  0.13735287    -0.89700
O254        O  0.17848618  0.75441231  0.19042338    -0.92600
C255        C  0.33069514  0.74204326  0.28181633     1.01200
C256        C  0.22287148  0.67743069  0.28784674     1.14100
C257        C  0.34078520  0.68512638  0.16726662     1.04900
O258        O  0.34157970  0.78597234  0.13951665    -0.94700
O259        O  0.27922770  0.80076339  0.10529780    -0.90500
O260        O  0.23238687  0.83204450  0.12075415    -0.83600
C261        C  0.25784554  0.82620789  0.10166330     1.11500
O262        O  0.19484005  0.64097016  0.16235090    -0.96700
Zr263      Zr  0.19949127  0.70519279  0.16004826     1.88900
O264        O  0.16352307  0.79202431  0.12747905    -0.73400
O265        O  0.29051685  0.72683790  0.09134460    -0.52600
O266        O  0.21446749  0.67791366  0.10744703    -0.97300
O267        O  0.14384939  0.68113093  0.17571034    -0.54500
O268        O  0.16067675  0.73260960  0.12123004    -0.73900
C269        C  0.15122176  0.76401338  0.11380236     0.98500
O270        O  0.20002907  0.86861712  0.16914978    -0.62700
O271        O  0.19217157  0.77587990  0.30307445    -0.57500
O272        O  0.16085297  0.82978016  0.19955880    -0.94200
O273        O  0.15418774  0.80072306  0.24803856    -0.92600
O274        O  0.27155556  0.83136589  0.28508318    -0.93000
O275        O  0.28681629  0.86495033  0.23124684    -0.91700
C276        C  0.14613270  0.82520716  0.22755218     1.17300
H277        H  0.26002438  0.74777352  0.27909179     0.33300
H278        H  0.27817703  0.82596086  0.16757994     0.44100
H279        H  0.15400337  0.75674675  0.18824656     0.37600
H280        H  0.26876413  0.68136677  0.15640496     0.34100
H281        H  0.35084352  0.83138484  0.23591394     0.25900
H282        H  0.31471420  0.72921809  0.08442687     0.31800
H283        H  0.21909367  0.69805939  0.09247147     0.37700
H284        H  0.26093129  0.81320402  0.29942806     0.32200
H285        H  0.17187145  0.76444566  0.31312981     0.31100
H286        H  0.13061174  0.73142097  0.27461853     0.32800
H287        H  0.12733576  0.70047308  0.17187079     0.31700
H288        H  0.29416728  0.87064409  0.20844060     0.35700
H289        H  0.22322734  0.87873280  0.16628197     0.28500
H290        H  0.30555617  0.63328300  0.23668752     0.32700
H291        H  0.21801377  0.63284668  0.16851226     0.35500
H292        H  0.21184691  0.76535808  0.31482113     0.28200
H293        H  0.18767402  0.87445282  0.14855764     0.41000
H294        H  0.34888340  0.78094700  0.11654623     0.31100
H295        H  0.35466027  0.79705477  0.21457470     0.38700
H296        H  0.14485588  0.67890986  0.20006121     0.30600
H297        H  0.28736228  0.70120531  0.09539093     0.30600
H298        H  0.28166848  0.62883860  0.20570976     0.30900
N299        N  0.28834258  0.93948426  0.94068189    -0.36800
N300        N  0.27871806  0.99359738  0.89096362    -0.57300
N301        N  0.26455595  0.04495135  0.94109595    -0.36700
N302        N  0.27341555  0.99171677  0.99086464    -0.57300
C303        C  0.28336127  0.91942944  0.91348173     0.26800
C304        C  0.28200648  0.91859401  0.96702726     0.26800
C305        C  0.25319013  0.06186807  0.91395352     0.26800
C306        C  0.24981774  0.06068355  0.96743243     0.26800
C307        C  0.28960488  0.96683039  0.87170401     0.35400
C308        C  0.27958972  0.02290796  0.87211884     0.35500
C309        C  0.28412421  0.96498687  0.01014791     0.35400
C310        C  0.27181160  0.02053526  0.01041904     0.35500
C311        C  0.27506637  0.88509153  0.92266872    -0.22000
C312        C  0.27432194  0.88454744  0.95653805    -0.22000
C313        C  0.23087976  0.08863785  0.92307682    -0.22000
C314        C  0.22881633  0.08793778  0.95703511    -0.22000
C315        C  0.29784945  0.97909487  0.84044884    -0.23100
C316        C  0.29192994  0.01491652  0.84082958    -0.23100
C317        C  0.28952981  0.97680997  0.04215405    -0.23100
C318        C  0.28203125  0.01227260  0.04226201    -0.23100
C319        C  0.28666583  0.93110198  0.88059232    -0.18400
C320        C  0.28356677  0.92938310  0.00029404    -0.18400
C321        C  0.25744913  0.05288650  0.00054154    -0.18400
C322        C  0.26468337  0.05525052  0.88155025    -0.18400
H323        H  0.26992326  0.86272580  0.90667191     0.14500
H324        H  0.26850973  0.86171717  0.97166364     0.14500
H325        H  0.21797735  0.10711083  0.90697653     0.14500
H326        H  0.21400670  0.10572897  0.97237308     0.14500
H327        H  0.30600686  0.96361522  0.81933971     0.12800
H328        H  0.29460237  0.03262403  0.81998922     0.12800
H329        H  0.29688797  0.96124012  0.06339096     0.12800
H330        H  0.28254171  0.02955642  0.06361105     0.12800
H331        H  0.29785748  0.96520055  0.94131838     0.26000
H332        H  0.28475715  0.02709157  0.94187719     0.26000
N333        N  0.99932744  0.26114190  0.99123674    -0.36800
N334        N  0.05224316  0.26314144  0.94001003    -0.57300
N335        N  0.99989667  0.25771738  0.88932716    -0.36700
N336        N  0.94704932  0.25126115  0.94046303    -0.57300
C337        C  0.02777668  0.25810546  0.01018935     0.26800
C338        C  0.97188614  0.25331912  0.01050042     0.26800
C339        C  0.02834245  0.25366860  0.87057521     0.26800
C340        C  0.97284068  0.24773577  0.87071743     0.26800
C341        C  0.07197989  0.26990876  0.96669620     0.35400
C342        C  0.07190614  0.26950231  0.91312337     0.35500
C343        C  0.92636189  0.25532898  0.96710835     0.35400
C344        C  0.92687520  0.25381748  0.91339527     0.35500
C345        C  0.01817161  0.24897620  0.04205900    -0.22000
C346        C  0.98302841  0.24608959  0.04228093    -0.22000
C347        C  0.01921509  0.24114530  0.83957239    -0.22000
C348        C  0.98418849  0.23753549  0.83962022    -0.22000
C349        C  0.10438599  0.28037484  0.95670621    -0.23100
C350        C  0.10428257  0.28033813  0.92282038    -0.23100
C351        C  0.89285060  0.25982563  0.95686361    -0.23100
C352        C  0.89319441  0.25900612  0.92292119    -0.23100
C353        C  0.06208899  0.26449400  0.99997415    -0.18400
C354        C  0.93694899  0.25374511  0.00064154    -0.18400
C355        C  0.93802073  0.24988266  0.88020672    -0.18400
C356        C  0.06205602  0.26302652  0.87999876    -0.18400
H357        H  0.03475152  0.24501107  0.06310218     0.14500
H358        H  0.96744851  0.23931785  0.06348749     0.14500
H359        H  0.03598437  0.23569337  0.81887614     0.14500
H360        H  0.96878498  0.22871412  0.81897727     0.14500
H361        H  0.12595302  0.28713235  0.97222665     0.12800
H362        H  0.12580912  0.28697681  0.90713964     0.12800
H363        H  0.87043807  0.26335955  0.97223501     0.12800
H364        H  0.87109459  0.26165349  0.90706683     0.12800
H365        H  0.99840564  0.27110698  0.96742477     0.26000
H366        H  0.99855295  0.27053480  0.91197444     0.26000
N367        N  0.69342801  0.00044543  0.99524487    -0.36800
N368        N  0.70140111  0.05418220  0.94367367    -0.57300
N369        N  0.69300372  0.00057992  0.89331394    -0.36700
N370        N  0.68551086  0.94716541  0.94499958    -0.57300
C371        C  0.70603516  0.02810748  0.01269376     0.26800
C372        C  0.69911113  0.97074304  0.01318391     0.26800
C373        C  0.70497656  0.02789750  0.87486797     0.26800
C374        C  0.69802893  0.97048140  0.87573684     0.26800
C375        C  0.69944830  0.07546908  0.97043547     0.35400
C376        C  0.69978059  0.07553245  0.91696304     0.35500
C377        C  0.67940715  0.92677036  0.97174304     0.35400
C378        C  0.67914949  0.92681418  0.91829934     0.35500
C379        C  0.71950780  0.01598871  0.04223652    -0.22000
C380        C  0.71529452  0.97976252  0.04247227    -0.22000
C381        C  0.71698461  0.01510744  0.84492608    -0.22000
C382        C  0.71276955  0.97889738  0.84552652    -0.22000
C383        C  0.69666643  0.11052103  0.96069178    -0.23100
C384        C  0.69694125  0.11055633  0.92678748    -0.23100
C385        C  0.66841816  0.89346229  0.96201334    -0.23100
C386        C  0.66822440  0.89349344  0.92812050    -0.23100
C387        C  0.70410646  0.06412750  0.00334061    -0.18400
C388        C  0.68910392  0.93592067  0.00419490    -0.18400
C389        C  0.68884430  0.93573766  0.88576731    -0.18400
C390        C  0.70443912  0.06413453  0.88402642    -0.18400
H391        H  0.73128133  0.03161712  0.06156992     0.14500
H392        H  0.72315816  0.96210323  0.06204211     0.14500
H393        H  0.72792713  0.03025323  0.82483131     0.14500
H394        H  0.71974726  0.96082306  0.82587746     0.14500
H395        H  0.69572404  0.13375373  0.97634824     0.12800
H396        H  0.69614930  0.13378103  0.91119737     0.12800
H397        H  0.66296931  0.87091112  0.97762773     0.12800
H398        H  0.66262843  0.87093403  0.91250795     0.12800
H399        H  0.67871542  0.00237659  0.97394516     0.26000
H400        H  0.67943797  0.00265769  0.91534202     0.26000
N401        N  0.04404878  0.78430918  0.94853898    -0.36800
N402        N  0.99197026  0.78509882  0.89784987    -0.57300
N403        N  0.93860277  0.79156943  0.94791490    -0.36700
N404        N  0.99075974  0.78914583  0.99854115    -0.57300
C405        C  0.06259752  0.77326950  0.92221903     0.26800
C406        C  0.06176135  0.77573860  0.97603796     0.26800
C407        C  0.91998087  0.78255769  0.92099508     0.26800
C408        C  0.91959902  0.78350450  0.97495435     0.26800
C409        C  0.02006948  0.78646961  0.87833987     0.35400
C410        C  0.96481339  0.79073321  0.87793054     0.35500
C411        C  0.01854581  0.79421087  0.01772492     0.35400
C412        C  0.96330425  0.79694546  0.01746322     0.35500
C413        C  0.09270592  0.75791702  0.93310314    -0.22000
C414        C  0.09218429  0.75948020  0.96711354    -0.22000
C415        C  0.88857353  0.76921451  0.93099811    -0.22000
C416        C  0.88841297  0.76960644  0.96503999    -0.22000
C417        C  0.01070451  0.79314886  0.84592787    -0.23100
C418        C  0.97571871  0.79577857  0.84566129    -0.23100
C419        C  0.00876153  0.80575967  0.04886988    -0.23100
C420        C  0.97369401  0.80758012  0.04867458    -0.23100
C421        C  0.05361433  0.77806532  0.88867276    -0.18400
C422        C  0.05202187  0.78415498  0.00878841    -0.18400
C423        C  0.92917760  0.78984973  0.00824552    -0.18400
C424        C  0.93025447  0.78696445  0.88765970    -0.18400
H425        H  0.11302811  0.74692813  0.91809842     0.14500
H426        H  0.11208094  0.75000329  0.98338513     0.14500
H427        H  0.86798535  0.75988287  0.91539481     0.14500
H428        H  0.86762108  0.76076663  0.98068743     0.14500
H429        H  0.02725501  0.79484852  0.82451395     0.12800
H430        H  0.96002524  0.79975640  0.82399077     0.12800
H431        H  0.02510388  0.81111501  0.06985733     0.12800
H432        H  0.95761966  0.81463979  0.06946037     0.12800
H433        H  0.02234959  0.80011659  0.94773801     0.26000
H434        H  0.96159604  0.80548600  0.94769385     0.26000
Zr435      Zr  0.20443477  0.79487364  0.72509014     2.17500
O436        O  0.19924345  0.85781046  0.73778961    -0.51500
O437        O  0.16179059  0.78160796  0.76726601    -0.74700
O438        O  0.15821031  0.82211370  0.69426279    -0.81500
O439        O  0.28252058  0.79463501  0.78184822    -0.83200
O440        O  0.15081604  0.79276720  0.64597064    -0.78800
O441        O  0.23465336  0.82489975  0.76849985    -0.90500
O442        O  0.15760916  0.72214667  0.77258397    -0.76400
O443        O  0.17492089  0.74508919  0.70310124    -0.85900
O444        O  0.22524810  0.74551285  0.75538109    -0.85600
O445        O  0.21958498  0.79499695  0.66748893    -0.72400
O446        O  0.26518308  0.79412977  0.71658224    -0.84500
Zr447      Zr  0.27193901  0.69299868  0.66680398     2.26400
Zr448      Zr  0.19110102  0.74380872  0.64590616     2.06300
Zr449      Zr  0.28551890  0.74353127  0.74583069     2.10000
Zr450      Zr  0.19649363  0.69565745  0.73289775     1.78800
O451        O  0.34357632  0.76622344  0.75123379    -0.93300
O452        O  0.14060038  0.67158176  0.71837214    -0.41100
O453        O  0.25710479  0.69260989  0.72417448    -0.77800
O454        O  0.21104463  0.69286511  0.67534490    -0.96400
O455        O  0.25141947  0.74259701  0.63675896    -0.89700
O456        O  0.30128709  0.74266149  0.68891502    -0.92600
C457        C  0.14933329  0.75372783  0.78090037     1.01200
C458        C  0.26197183  0.82072040  0.78539106     1.14100
C459        C  0.14347610  0.81782004  0.66626507     1.04900
O460        O  0.13411530  0.71865570  0.63978433    -0.94700
O461        O  0.19896344  0.69688769  0.60531759    -0.90500
O462        O  0.24996728  0.67037652  0.61591090    -0.83600
C463        C  0.22286141  0.67466542  0.59882970     1.11500
O464        O  0.27349675  0.85625603  0.66387745    -0.96700
Zr465      Zr  0.28018076  0.79232751  0.65938758     1.88900
O466        O  0.31659929  0.70559054  0.62696503    -0.73400
O467        O  0.18921768  0.76858283  0.59033369    -0.52600
O468        O  0.27179405  0.82106680  0.60624404    -0.97300
O469        O  0.33429933  0.81911091  0.67582364    -0.54500
O470        O  0.31986070  0.76498332  0.62066509    -0.73900
C471        C  0.32918744  0.73337294  0.61337301     0.98500
O472        O  0.27203653  0.62876882  0.66092345    -0.62700
O473        O  0.28583372  0.71905054  0.80153613    -0.57500
O474        O  0.32026216  0.66683884  0.69489668    -0.94200
O475        O  0.32504541  0.69409375  0.74464510    -0.92600
O476        O  0.20805155  0.67014249  0.78691147    -0.93000
O477        O  0.19991165  0.63127496  0.73149539    -0.91700
C478        C  0.33411677  0.67069190  0.72334722     1.17300
H479        H  0.22082139  0.74801943  0.77879031     0.33300
H480        H  0.20115473  0.67158199  0.66615147     0.44100
H481        H  0.32577761  0.74026026  0.68641268     0.37600
H482        H  0.21162994  0.81618972  0.65674349     0.34100
H483        H  0.14507442  0.65351810  0.70115310     0.25900
H484        H  0.19296917  0.79430101  0.59337432     0.31800
H485        H  0.25694885  0.80464448  0.59368729     0.37700
H486        H  0.23322306  0.66752682  0.78762344     0.32200
H487        H  0.30991963  0.72097299  0.80882943     0.31100
H488        H  0.35241362  0.75539122  0.77176216     0.32800
H489        H  0.34221410  0.83195385  0.65591080     0.31700
H490        H  0.22467112  0.62607647  0.73003005     0.35700
H491        H  0.29432381  0.62291081  0.65062117     0.28500
H492        H  0.17820909  0.86003782  0.75127469     0.32700
H493        H  0.25468386  0.85964437  0.67998576     0.35500
H494        H  0.27340200  0.73637826  0.81541750     0.28200
H495        H  0.27346984  0.61937027  0.68368980     0.41000
H496        H  0.13154571  0.70237133  0.65873305     0.31100
H497        H  0.13334168  0.65787301  0.73800873     0.38700
H498        H  0.35044215  0.79912324  0.67798077     0.30600
H499        H  0.21034899  0.76016032  0.57937505     0.30600
H500        H  0.19436533  0.87017550  0.71678979     0.30900
N501        N  0.98845532  0.94397024  0.61918450    -0.36800
N502        N  0.04777240  0.99084833  0.62161048    -0.57300
N503        N  0.00374711  0.05248774  0.62548556    -0.36700
N504        N  0.94418529  0.00568981  0.62466295    -0.57300
C505        C  0.01351806  0.92065055  0.62668295     0.26800
C506        C  0.95837206  0.92831778  0.62711999     0.26800
C507        C  0.03434185  0.06735680  0.63308672     0.26800
C508        C  0.97905948  0.07547547  0.63501350     0.26800
C509        C  0.06393757  0.95970637  0.61704875     0.35400
C510        C  0.07196039  0.01626338  0.61919860     0.35500
C511        C  0.91992379  0.98042341  0.62070778     0.35400
C512        C  0.92791316  0.03724572  0.62417212     0.35500
C513        C  0.99911035  0.88945592  0.63819760    -0.22000
C514        C  0.96442416  0.89424014  0.63843236    -0.22000
C515        C  0.02903419  0.10059751  0.64667151    -0.22000
C516        C  0.99423560  0.10575151  0.64780575    -0.22000
C517        C  0.09848026  0.96540719  0.61131312    -0.23100
C518        C  0.10350359  0.00126480  0.61236411    -0.23100
C519        C  0.88811774  0.99597542  0.61719664    -0.23100
C520        C  0.89316136  0.03195031  0.61935389    -0.23100
C521        C  0.04910904  0.92637220  0.62332799    -0.18400
C522        C  0.92547325  0.94370484  0.62479420    -0.18400
C523        C  0.94321264  0.07026428  0.63213471    -0.18400
C524        C  0.06699058  0.05209209  0.62767537    -0.18400
H525        H  0.01217863  0.86567130  0.64592955     0.14500
H526        H  0.94585425  0.87482547  0.64655475     0.14500
H527        H  0.04823974  0.11921497  0.65504351     0.14500
H528        H  0.98156628  0.12910482  0.65726582     0.14500
H529        H  0.11831474  0.94577338  0.60817644     0.12800
H530        H  0.12789567  0.01463706  0.61002798     0.12800
H531        H  0.86370384  0.98270625  0.61462253     0.12800
H532        H  0.87332975  0.05186190  0.61874773     0.12800
H533        H  0.99152936  0.96821216  0.60745791     0.26000
H534        H  0.00000009  0.02924610  0.61226303     0.26000
Zr535      Zr  0.28793869  0.28782560  0.65872764     2.17500
O536        O  0.34406771  0.30715629  0.63905015    -0.51500
O537        O  0.26692893  0.33170519  0.61980185    -0.74700
O538        O  0.31735840  0.26071219  0.61250830    -0.81500
O539        O  0.28988177  0.33558710  0.74305849    -0.83200
O540        O  0.29260096  0.20820926  0.59887680    -0.78800
O541        O  0.31620829  0.33145960  0.69346120    -0.90500
O542        O  0.20931901  0.32742253  0.61715358    -0.76400
O543        O  0.24130868  0.26042577  0.63106906    -0.85900
O544        O  0.23797302  0.31221621  0.68378136    -0.85600
O545        O  0.29525736  0.22545163  0.66754628    -0.72400
O546        O  0.29181007  0.27269063  0.71611175    -0.84500
Zr547      Zr  0.20090930  0.20514277  0.72134175     2.26400
Zr548      Zr  0.24779235  0.19807402  0.64002177     2.06300
Zr549      Zr  0.24068285  0.29554236  0.74094509     2.10000
Zr550      Zr  0.19134422  0.28369388  0.65676540     1.78800
O551        O  0.26081645  0.29667363  0.79787444    -0.93300
O552        O  0.16534539  0.26822198  0.60395714    -0.41100
O553        O  0.19344777  0.26764435  0.71373533    -0.77800
O554        O  0.19660485  0.22130424  0.66433761    -0.96400
O555        O  0.25119886  0.18136773  0.69704892    -0.89700
O556        O  0.24681890  0.23327971  0.74983035    -0.92600
C557        C  0.23782016  0.34080823  0.60797186     1.01200
C558        C  0.31392968  0.34408844  0.72283225     1.14100
C559        C  0.31488001  0.23287140  0.59454106     1.04900
O560        O  0.22152834  0.19343261  0.58572432    -0.94700
O561        O  0.20368933  0.15209201  0.64076143    -0.90500
O562        O  0.17865586  0.15447926  0.69140680    -0.83600
C563        C  0.18182330  0.14128624  0.66234648     1.11500
O564        O  0.35869434  0.21738847  0.71771019    -0.96700
Zr565      Zr  0.29716497  0.21042393  0.72476152     1.88900
O566        O  0.22058893  0.16419030  0.76353723    -0.73400
O567        O  0.27897178  0.14260471  0.63550859    -0.52600
O568        O  0.32731014  0.15706137  0.70782730    -0.97300
O569        O  0.32598797  0.22887335  0.77537574    -0.54500
O570        O  0.27847313  0.16786457  0.76548888    -0.73900
C571        C  0.24973384  0.15549834  0.77551850     0.98500
O572        O  0.14201875  0.18432537  0.72722208    -0.62700
O573        O  0.21637383  0.35466952  0.74534954    -0.57500
O574        O  0.17045152  0.23225860  0.76623573    -0.94200
O575        O  0.19145536  0.28696561  0.77788919    -0.92600
O576        O  0.15988976  0.33614776  0.67410334    -0.93000
O577        O  0.13001876  0.27527551  0.66433988    -0.91700
C578        C  0.17061776  0.26104447  0.78276734     1.17300
H579        H  0.23732850  0.33767496  0.68136802     0.33300
H580        H  0.17645376  0.21078051  0.65450033     0.44100
H581        H  0.24599816  0.22850680  0.77325781     0.37600
H582        H  0.31650684  0.21724687  0.65837310     0.34100
H583        H  0.15023278  0.24773921  0.60850229     0.25900
H584        H  0.28025408  0.13780361  0.61148547     0.31800
H585        H  0.30926460  0.13880675  0.70557164     0.37700
H586        H  0.17726758  0.35511223  0.67603308     0.32200
H587        H  0.19166308  0.35085586  0.74936193     0.31100
H588        H  0.24688321  0.31508251  0.80891679     0.32800
H589        H  0.30732898  0.23476022  0.79099176     0.31700
H590        H  0.12803843  0.25429681  0.67883745     0.35700
H591        H  0.13910533  0.17710631  0.75057007     0.28500
H592        H  0.34260632  0.33311552  0.63610704     0.32700
H593        H  0.36127448  0.23918092  0.70437676     0.35500
H594        H  0.22523739  0.36406579  0.76653636     0.28200
H595        H  0.12746050  0.20553017  0.72451711     0.41000
H596        H  0.20621593  0.21417864  0.58435304     0.31100
H597        H  0.14957219  0.28797366  0.59904709     0.38700
H598        H  0.33656963  0.25201804  0.77008240     0.30600
H599        H  0.30271433  0.14870707  0.64184046     0.30600
H600        H  0.36030244  0.30347285  0.65747943     0.30900
Zr601      Zr  0.70764210  0.29840889  0.65969380     2.17500
O602        O  0.68970685  0.35987730  0.65387662    -0.51500
O603        O  0.66575010  0.27971529  0.61805447    -0.74700
O604        O  0.73546567  0.32809993  0.61326497    -0.81500
O605        O  0.65680480  0.29601205  0.74168644    -0.83200
O606        O  0.78680120  0.30246777  0.60247522    -0.78800
O607        O  0.66180156  0.32489845  0.69273685    -0.90500
O608        O  0.66702093  0.22002738  0.61522895    -0.76400
O609        O  0.73290468  0.24967291  0.63125764    -0.85900
O610        O  0.68235736  0.24695046  0.68344506    -0.85600
O611        O  0.76825794  0.30300587  0.66997554    -0.72400
O612        O  0.72186424  0.29955306  0.71732666    -0.84500
Zr613      Zr  0.78278925  0.20234691  0.72317191     2.26400
Zr614      Zr  0.79328815  0.25331226  0.64189924     2.06300
Zr615      Zr  0.69748068  0.24725289  0.74087603     2.10000
Zr616      Zr  0.70792602  0.19841859  0.65558237     1.78800
O617        O  0.69693290  0.27095457  0.79687725    -0.93300
O618        O  0.72394393  0.16767485  0.60492562    -0.41100
O619        O  0.72233297  0.19747752  0.71317736    -0.77800
O620        O  0.76822179  0.20095373  0.66530451    -0.96400
O621        O  0.80801179  0.25400074  0.69943480    -0.89700
O622        O  0.75753567  0.25083275  0.75160774    -0.92600
C623        C  0.65547231  0.25013251  0.60577102     1.01200
C624        C  0.64826002  0.32069172  0.72153444     1.14100
C625        C  0.76348237  0.32575590  0.59676969     1.04900
O626        O  0.79618793  0.22664599  0.58712819    -0.94700
O627        O  0.83756651  0.20690859  0.64538340    -0.90500
O628        O  0.83130420  0.17743732  0.69377102    -0.83600
C629        C  0.84624683  0.18233060  0.66582976     1.11500
O630        O  0.77982638  0.36634207  0.72142297    -0.96700
Zr631      Zr  0.78195362  0.30232476  0.72749080     1.88900
O632        O  0.82549454  0.22150348  0.76375407    -0.73400
O633        O  0.84744853  0.28399967  0.63366231    -0.52600
O634        O  0.83655020  0.33026498  0.71481468    -0.97300
O635        O  0.76116803  0.33067538  0.77777846    -0.54500
O636        O  0.82326435  0.28121149  0.76709450    -0.73900
C637        C  0.83559987  0.25131703  0.77577474     0.98500
O638        O  0.79764745  0.13981168  0.72788407    -0.62700
O639        O  0.64022024  0.22208795  0.74448577    -0.57500
O640        O  0.75539952  0.17302128  0.77014761    -0.94200
O641        O  0.70303036  0.19710932  0.77856441    -0.92600
O642        O  0.65443671  0.17211373  0.67442100    -0.93000
O643        O  0.71238920  0.13422537  0.65806903    -0.91700
C644        C  0.72636799  0.17425232  0.78511516     1.17300
H645        H  0.65789334  0.24701395  0.68071008     0.33300
H646        H  0.77781179  0.18008321  0.65503710     0.44100
H647        H  0.76184733  0.24958357  0.77510931     0.37600
H648        H  0.77728345  0.32502099  0.66141287     0.34100
H649        H  0.70268148  0.16616259  0.59176044     0.25900
H650        H  0.86186067  0.27666590  0.65249575     0.31800
H651        H  0.84022875  0.32555041  0.69101116     0.37700
H652        H  0.64419153  0.16153873  0.65433339     0.32200
H653        H  0.64334224  0.19647580  0.74041322     0.31100
H654        H  0.67583601  0.26123971  0.80697497     0.32800
H655        H  0.76131364  0.31185444  0.79474742     0.31700
H656        H  0.72532824  0.12957107  0.67860715     0.35700
H657        H  0.80895674  0.13731898  0.74963396     0.28500
H658        H  0.68135629  0.36231408  0.63092522     0.32700
H659        H  0.75723904  0.37093885  0.71129782     0.35500
H660        H  0.63400871  0.22385676  0.76815634     0.28200
H661        H  0.77576537  0.12675373  0.72996350     0.41000
H662        H  0.77784556  0.23830130  0.57433501     0.31100
H663        H  0.73850288  0.18474007  0.59280519     0.38700
H664        H  0.73661117  0.33520217  0.77365273     0.30600
H665        H  0.85785119  0.27223109  0.61420050     0.30600
H666        H  0.71098468  0.37410957  0.65484514     0.30900
Zr667      Zr  0.71142356  0.69960973  0.66600925     2.17500
O668        O  0.70847474  0.63643046  0.65363641    -0.51500
O669        O  0.66739911  0.71082575  0.62428427    -0.74700
O670        O  0.66706068  0.66904452  0.69674709    -0.81500
O671        O  0.79201939  0.70171750  0.61197942    -0.83200
O672        O  0.65437302  0.69910595  0.74382866    -0.78800
O673        O  0.74256232  0.67195855  0.62213915    -0.90500
O674        O  0.66161168  0.77005393  0.61922219    -0.76400
O675        O  0.67907974  0.74803096  0.68637794    -0.85900
O676        O  0.73227149  0.74941965  0.63631531    -0.85600
O677        O  0.72401999  0.70105355  0.72391847    -0.72400
O678        O  0.77172996  0.70306974  0.67747505    -0.84500
Zr679      Zr  0.77213637  0.80584938  0.72767636     2.26400
Zr680      Zr  0.69219258  0.75061264  0.74429888     2.06300
Zr681      Zr  0.79206822  0.75408931  0.64841228     2.10000
Zr682      Zr  0.70082121  0.79806812  0.65730400     1.78800
O683        O  0.85187172  0.73653108  0.64509478    -0.93300
O684        O  0.64532382  0.82263405  0.67220003    -0.41100
O685        O  0.76055645  0.80380931  0.66925040    -0.77800
O686        O  0.71218701  0.80199664  0.71528889    -0.96400
O687        O  0.75186856  0.75553740  0.75686498    -0.89700
O688        O  0.80471282  0.75741659  0.70646797    -0.92600
C689        C  0.65358849  0.73833373  0.61124485     1.01200
C690        C  0.77041446  0.67660830  0.60622854     1.14100
C691        C  0.65040248  0.67299140  0.72378973     1.04900
O692        O  0.63461844  0.77463627  0.74874927    -0.94700
O693        O  0.69189750  0.79968253  0.78350225    -0.90500
O694        O  0.74092890  0.83064690  0.77425445    -0.83600
C695        C  0.71269353  0.82520866  0.78970573     1.11500
O696        O  0.78315032  0.64267587  0.73515929    -0.96700
Zr697      Zr  0.78357703  0.70712675  0.73538522     1.88900
O698        O  0.81714652  0.79532525  0.76865194    -0.73400
O699        O  0.69203886  0.72228518  0.79827673    -0.52600
O700        O  0.76703954  0.68275102  0.78878939    -0.97300
O701        O  0.83878722  0.68057175  0.72261283    -0.54500
O702        O  0.82148124  0.73607079  0.77427270    -0.73900
C703        C  0.83014084  0.76764276  0.78219587     0.98500
O704        O  0.77063880  0.86852762  0.74211130    -0.62700
O705        O  0.79510868  0.77422181  0.59123040    -0.57500
O706        O  0.81332063  0.83918052  0.69495959    -0.94200
O707        O  0.82542978  0.80912562  0.64785464    -0.92600
O708        O  0.71220431  0.81972069  0.60169541    -0.93000
O709        O  0.70311741  0.86240707  0.65479212    -0.91700
C710        C  0.82892275  0.83603675  0.66718039     1.17300
H711        H  0.72847323  0.74641455  0.61288127     0.33300
H712        H  0.70066787  0.82290590  0.72335911     0.44100
H713        H  0.82887512  0.76093659  0.70999021     0.37600
H714        H  0.71688117  0.67945827  0.73462176     0.34100
H715        H  0.63195437  0.80219017  0.68045410     0.25900
H716        H  0.70960895  0.73512309  0.81121070     0.31800
H717        H  0.78854978  0.68107984  0.80152560     0.37700
H718        H  0.73593295  0.82883715  0.60251025     0.32200
H719        H  0.77490806  0.76395385  0.58002832     0.31100
H720        H  0.85473284  0.71872389  0.66274727     0.32800
H721        H  0.84558477  0.66817713  0.74309836     0.31700
H722        H  0.71900907  0.86926953  0.67272533     0.35700
H723        H  0.79216761  0.87314155  0.75421579     0.28500
H724        H  0.68463112  0.63166936  0.64665940     0.32700
H725        H  0.77693293  0.63615814  0.71222735     0.35500
H726        H  0.79042227  0.79991776  0.59216183     0.28200
H727        H  0.77249362  0.88190582  0.72118259     0.41000
H728        H  0.62086661  0.76090915  0.73267760     0.31100
H729        H  0.64950886  0.83731606  0.69206889     0.38700
H730        H  0.85486781  0.70075821  0.72105478     0.30600
H731        H  0.67001653  0.72932063  0.80841632     0.30600
H732        H  0.71109980  0.62418459  0.67507818     0.30900
N733        N  0.48850944  0.44493404  0.75918504    -0.36800
N734        N  0.54533766  0.49520212  0.75987969    -0.57300
N735        N  0.49539506  0.55220164  0.76159898    -0.36700
N736        N  0.43878027  0.50200060  0.76488874    -0.57300
C737        C  0.51520521  0.42261225  0.76313637     0.26800
C738        C  0.45946922  0.42623657  0.76458674     0.26800
C739        C  0.52460932  0.57096009  0.76515186     0.26800
C740        C  0.46909581  0.57456060  0.76721280     0.26800
C741        C  0.56264414  0.46538777  0.75200105     0.35400
C742        C  0.56621649  0.52275653  0.75261767     0.35500
C743        C  0.41722048  0.47495303  0.75803892     0.35400
C744        C  0.42096805  0.53202177  0.75934809     0.35500
C745        C  0.50293462  0.38934242  0.77153882    -0.22000
C746        C  0.46774828  0.39161653  0.77233824    -0.22000
C747        C  0.51673138  0.60562461  0.77361978    -0.22000
C748        C  0.48166362  0.60789900  0.77481561    -0.22000
C749        C  0.59510472  0.47405288  0.74068843    -0.23100
C750        C  0.59731742  0.51038544  0.74098831    -0.23100
C751        C  0.38526040  0.48784678  0.74959389    -0.23100
C752        C  0.38762788  0.52397529  0.75044316    -0.23100
C753        C  0.54977888  0.43042865  0.75532910    -0.18400
C754        C  0.42585560  0.43869102  0.75901339    -0.18400
C755        C  0.43429245  0.56672667  0.76164569    -0.18400
C756        C  0.55774972  0.55891509  0.75680159    -0.18400
H757        H  0.51773522  0.36558123  0.77553430     0.14500
H758        H  0.45020487  0.37002895  0.77714296     0.14500
H759        H  0.53438303  0.62738699  0.77725697     0.14500
H760        H  0.46705015  0.63165739  0.77959984     0.14500
H761        H  0.61501721  0.45609700  0.73273152     0.12800
H762        H  0.61923729  0.52591471  0.73336652     0.12800
H763        H  0.36271605  0.47283589  0.74286337     0.12800
H764        H  0.36726189  0.54221390  0.74450238     0.12800
H765        H  0.48973155  0.46968307  0.74826225     0.26000
H766        H  0.49339278  0.52745905  0.75076024     0.26000
N767        N  0.43245006  0.50837739  0.13025500    -0.36800
N768        N  0.49287682  0.55265138  0.12917705    -0.57300
N769        N  0.53725055  0.49031555  0.13195321    -0.36700
N770        N  0.47647276  0.44586687  0.13605366    -0.57300
C771        C  0.41777823  0.54037633  0.13528330     0.26800
C772        C  0.40855320  0.48358241  0.13712879     0.26800
C773        C  0.56006277  0.51646042  0.13851651     0.26800
C774        C  0.55143196  0.45944040  0.14194539     0.26800
C775        C  0.46904603  0.57815523  0.12564011     0.35400
C776        C  0.52343462  0.56856012  0.12488966     0.35500
C777        C  0.44570238  0.42952133  0.13444960     0.35400
C778        C  0.50041630  0.42003951  0.13597943     0.35500
C779        C  0.38377724  0.53581177  0.14407760    -0.22000
C780        C  0.37785618  0.50004996  0.14488393    -0.22000
C781        C  0.58947513  0.50189967  0.15180258    -0.22000
C782        C  0.58410017  0.46596800  0.15384921    -0.22000
C783        C  0.48438906  0.61029762  0.11863275    -0.23100
C784        C  0.51885268  0.60423316  0.11800334    -0.23100
C785        C  0.45020296  0.39312918  0.13346337    -0.23100
C786        C  0.48479524  0.38715416  0.13428585    -0.23100
C787        C  0.43393179  0.57370763  0.13198232    -0.18400
C788        C  0.41350079  0.44649180  0.13708287    -0.18400
C789        C  0.53591052  0.42545765  0.14069245    -0.18400
C790        C  0.55515670  0.55314700  0.13294374    -0.18400
H791        H  0.36511025  0.55610812  0.14953142     0.14500
H792        H  0.35376275  0.48764339  0.15124126     0.14500
H793        H  0.61232310  0.51577004  0.15961609     0.14500
H794        H  0.60200511  0.44691104  0.16366956     0.14500
H795        H  0.47207803  0.63566450  0.11534355     0.12800
H796        H  0.53834259  0.62425996  0.11452116     0.12800
H797        H  0.43058370  0.37288697  0.13307478     0.12800
H798        H  0.49699621  0.36148485  0.13471853     0.12800
H799        H  0.45663219  0.50355253  0.12082346     0.26000
H800        H  0.51438470  0.49312236  0.11924392     0.26000
N801        N  0.79053707  0.50408272  0.49498144    -0.36800
N802        N  0.78343285  0.45282111  0.44142866    -0.57300
N803        N  0.78490090  0.50964646  0.39273082    -0.36700
N804        N  0.78875528  0.56103264  0.44623595    -0.57300
C805        C  0.78309122  0.47450710  0.51254987     0.26800
C806        C  0.78503667  0.53235711  0.51497436     0.26800
C807        C  0.77446225  0.48227295  0.37355769     0.26800
C808        C  0.77759941  0.53987389  0.37631005     0.26800
C809        C  0.78837359  0.43021033  0.46691654     0.35400
C810        C  0.78526482  0.43328329  0.41337383     0.35500
C811        C  0.79505632  0.58035703  0.47368117     0.35400
C812        C  0.79305040  0.58314200  0.42032599     0.35500
C813        C  0.77359685  0.48411708  0.54436771    -0.22000
C814        C  0.77477365  0.52055110  0.54588082    -0.22000
C815        C  0.76085890  0.49525134  0.34438517    -0.22000
C816        C  0.76280132  0.53159491  0.34612978    -0.22000
C817        C  0.79335229  0.39622883  0.45493851    -0.23100
C818        C  0.79141437  0.39817316  0.42110522    -0.23100
C819        C  0.80341788  0.61484017  0.46514028    -0.23100
C820        C  0.80221693  0.61657619  0.43132598    -0.23100
C821        C  0.78534784  0.43906015  0.50089884    -0.18400
C822        C  0.78998331  0.56845219  0.50640365    -0.18400
C823        C  0.78516215  0.57465208  0.38723687    -0.18400
C824        C  0.77816338  0.44589708  0.38113839    -0.18400
H825        H  0.76643945  0.46669097  0.56442919     0.14500
H826        H  0.76876210  0.53652109  0.56734086     0.14500
H827        H  0.75055597  0.48011262  0.32395864     0.14500
H828        H  0.75431901  0.54983322  0.32726866     0.14500
H829        H  0.79727641  0.37235704  0.46914658     0.12800
H830        H  0.79344015  0.37607742  0.40416671     0.12800
H831        H  0.80907680  0.63667523  0.48161067     0.12800
H832        H  0.80666754  0.64000258  0.41656839     0.12800
H833        H  0.80149201  0.50479090  0.47160156     0.26000
H834        H  0.79927566  0.50772391  0.41421456     0.26000
N835        N  0.54260651  0.71430970  0.44676937    -0.36800
N836        N  0.49096350  0.71064115  0.49837835    -0.57300
N837        N  0.43669561  0.70890439  0.44890083    -0.36700
N838        N  0.48837552  0.71531785  0.39758662    -0.57300
C839        C  0.56175981  0.72289241  0.47348462     0.26800
C840        C  0.56037029  0.72413321  0.41949175     0.26800
C841        C  0.41810499  0.71477442  0.47658175     0.26800
C842        C  0.41691823  0.71790349  0.42278422     0.26800
C843        C  0.51922769  0.70809128  0.51742253     0.35400
C844        C  0.46390053  0.70464186  0.51845557     0.35500
C845        C  0.51568803  0.71090958  0.37753860     0.35400
C846        C  0.46043827  0.70955310  0.37872324     0.35500
C847        C  0.59237348  0.73776932  0.46300085    -0.22000
C848        C  0.59149838  0.73852951  0.42892604    -0.22000
C849        C  0.38574309  0.72650346  0.46788255    -0.22000
C850        C  0.38503382  0.72853270  0.43393937    -0.22000
C851        C  0.51006185  0.70013958  0.54969337    -0.23100
C852        C  0.47503585  0.69800102  0.55035126    -0.23100
C853        C  0.50504683  0.70196625  0.34593644    -0.23100
C854        C  0.46999946  0.70124883  0.34666893    -0.23100
C855        C  0.55282257  0.71654530  0.50697463    -0.18400
C856        C  0.54975472  0.71885638  0.38635246    -0.18400
C857        C  0.42651382  0.71550278  0.38912078    -0.18400
C858        C  0.42930485  0.70949532  0.50947272    -0.18400
H859        H  0.61320333  0.74710332  0.47830888     0.14500
H860        H  0.61151284  0.74850263  0.41292377     0.14500
H861        H  0.36482016  0.73315140  0.48428734     0.14500
H862        H  0.36348159  0.73688601  0.41917088     0.14500
H863        H  0.52678557  0.69732041  0.57080355     0.12800
H864        H  0.45947518  0.69329241  0.57206507     0.12800
H865        H  0.52086473  0.69744343  0.32436775     0.12800
H866        H  0.45341213  0.69597251  0.32584521     0.12800
H867        H  0.52024374  0.69940815  0.44695141     0.26000
H868        H  0.46047510  0.69675212  0.44784430     0.26000
N869        N  0.23611287  0.45044320  0.44082109    -0.36800
N870        N  0.22298877  0.50207358  0.38974647    -0.57300
N871        N  0.21836889  0.55591569  0.43972711    -0.36700
N872        N  0.22987275  0.50527569  0.49058498    -0.57300
C873        C  0.22872153  0.42961620  0.41457174     0.26800
C874        C  0.23061791  0.43100176  0.46835205     0.26800
C875        C  0.20570981  0.57308314  0.41339360     0.26800
C876        C  0.21041903  0.57542282  0.46648966     0.26800
C877        C  0.23377404  0.47494559  0.37091929     0.35400
C878        C  0.22426669  0.53097417  0.37039023     0.35500
C879        C  0.24026037  0.47835348  0.50981231     0.35400
C880        C  0.23340299  0.53501310  0.50874130     0.35500
C881        C  0.21863355  0.39643925  0.42544417    -0.22000
C882        C  0.21978283  0.39732537  0.45948585    -0.22000
C883        C  0.18932520  0.60377503  0.42344478    -0.22000
C884        C  0.19233640  0.60527962  0.45716879    -0.22000
C885        C  0.24154931  0.48651991  0.33924993    -0.23100
C886        C  0.23550729  0.52226297  0.33893611    -0.23100
C887        C  0.25027517  0.49096167  0.54052535    -0.23100
C888        C  0.24604066  0.52704467  0.53978885    -0.23100
C889        C  0.23288667  0.43947934  0.38116064    -0.18400
C890        C  0.23713709  0.44241472  0.50104742    -0.18400
C891        C  0.22220327  0.56858225  0.49849326    -0.18400
C892        C  0.21368729  0.56468398  0.38060338    -0.18400
H893        H  0.21144203  0.37392149  0.41040094     0.14500
H894        H  0.21367690  0.37557196  0.47583845     0.14500
H895        H  0.17775059  0.62373947  0.40796423     0.14500
H896        H  0.18329447  0.62650863  0.47287202     0.14500
H897        H  0.25006329  0.47075998  0.31845266     0.12800
H898        H  0.23851017  0.53969926  0.31793285     0.12800
H899        H  0.25898368  0.47567281  0.56145806     0.12800
H900        H  0.25074023  0.54517087  0.56002715     0.12800
H901        H  0.24791176  0.47513378  0.43982351     0.26000
H902        H  0.23628137  0.53564978  0.43892521     0.26000
N903        N  0.48897909  0.23016860  0.49290761    -0.36800
N904        N  0.43739012  0.21880859  0.44180006    -0.57300
N905        N  0.48893235  0.22794044  0.39079040    -0.36700
N906        N  0.54052021  0.24236166  0.44192665    -0.57300
C907        C  0.46005170  0.23243966  0.51135615     0.26800
C908        C  0.51548188  0.24125646  0.51188702     0.26800
C909        C  0.46021473  0.22883320  0.37208855     0.26800
C910        C  0.51496984  0.24035358  0.37196093     0.26800
C911        C  0.41779673  0.21270867  0.46868240     0.35400
C912        C  0.41794816  0.21081382  0.41526452     0.35500
C913        C  0.56133567  0.24046975  0.46865111     0.35400
C914        C  0.56097460  0.24105895  0.41484527     0.35500
C915        C  0.46836719  0.24467846  0.54265095    -0.22000
C916        C  0.50328756  0.24986118  0.54310949    -0.22000
C917        C  0.46839366  0.24094502  0.34070987    -0.22000
C918        C  0.50287068  0.24819184  0.34063133    -0.22000
C919        C  0.38591422  0.20018846  0.45919737    -0.23100
C920        C  0.38598063  0.19907473  0.42538012    -0.23100
C921        C  0.59514150  0.23868608  0.45837412    -0.23100
C922        C  0.59489355  0.23899998  0.42441840    -0.23100
C923        C  0.42660985  0.22220792  0.50133598    -0.18400
C924        C  0.55050994  0.24192599  0.50224018    -0.18400
C925        C  0.54975321  0.24285606  0.38153837    -0.18400
C926        C  0.42681759  0.21879104  0.38228584    -0.18400
H927        H  0.45114432  0.24886844  0.56325486     0.14500
H928        H  0.51790796  0.25889440  0.56416989     0.14500
H929        H  0.45131073  0.24427224  0.31994630     0.14500
H930        H  0.51740303  0.25808214  0.31980276     0.14500
H931        H  0.36434542  0.19384565  0.47493270     0.12800
H932        H  0.36441165  0.19185030  0.41006311     0.12800
H933        H  0.61773903  0.23736527  0.47369445     0.12800
H934        H  0.61719057  0.23777386  0.40857434     0.12800
H935        H  0.49112793  0.21832613  0.46987550     0.26000
H936        H  0.49135311  0.21660155  0.41398642     0.26000
C937        C  0.57859168  0.75290971  0.55170076    -0.20500
C938        C  0.57937242  0.72167394  0.53304386    -0.07000
C939        C  0.60387844  0.69554902  0.54062199     0.13900
C940        C  0.62751106  0.70175117  0.56614245    -0.20500
C941        C  0.62723343  0.73325555  0.58479418    -0.07000
C942        C  0.60186174  0.75905647  0.57753264     0.13800
C943        C  0.59796269  0.79265404  0.59738350    -0.23900
H944        H  0.55923453  0.77249724  0.54614331     0.15100
H945        H  0.64621565  0.68154843  0.57154509     0.15200
C946        C  0.60534468  0.66055850  0.52277666    -0.23800
H947        H  0.57506832  0.80794440  0.58980307     0.05400
H948        H  0.62048287  0.81010860  0.59364799     0.08600
H949        H  0.59498911  0.78617245  0.62398909     0.08600
H950        H  0.58497306  0.65749353  0.50398054     0.08600
H951        H  0.60243559  0.63871681  0.54089391     0.08600
H952        H  0.63045294  0.65789565  0.51018095     0.05400
C953        C  0.80802481  0.63302105  0.57717805    -0.20500
C954        C  0.77667166  0.65092231  0.57921410    -0.07000
C955        C  0.75016558  0.64203715  0.55674700     0.13900
C956        C  0.75525535  0.61480233  0.53376383    -0.20500
C957        C  0.78609461  0.59615459  0.53243378    -0.07000
C958        C  0.81306041  0.60579293  0.55382597     0.13800
C959        C  0.84718749  0.58769437  0.55150364    -0.23900
H960        H  0.82830349  0.63984017  0.59427370     0.15100
H961        H  0.73502638  0.60790825  0.51661382     0.15200
C962        C  0.71651214  0.66152273  0.55643685    -0.23800
H963        H  0.86562596  0.59847518  0.56979073     0.05400
H964        H  0.85807487  0.59159313  0.52640131     0.08600
H965        H  0.84406911  0.55894060  0.55618980     0.08600
H966        H  0.72108135  0.69049389  0.55493663     0.08600
H967        H  0.70171644  0.65528096  0.57908964     0.08600
H968        H  0.70046653  0.65377002  0.53498250     0.05400
C969        C  0.62811694  0.62852471  0.76378931    -0.20500
C970        C  0.62603308  0.64452258  0.73250249    -0.07000
C971        C  0.60236758  0.63133405  0.70910163     0.13900
C972        C  0.58145152  0.60257347  0.71751138    -0.20500
C973        C  0.58358465  0.58652683  0.74860207    -0.07000
C974        C  0.60725042  0.59942073  0.77201308     0.13800
C975        C  0.61023178  0.58253764  0.80553785    -0.23900
H976        H  0.64657193  0.63836700  0.78154787     0.15100
H977        H  0.56277361  0.59282486  0.69992905     0.15200
C978        C  0.59803933  0.64834008  0.67566567    -0.23800
H979        H  0.62995232  0.59581017  0.82093886     0.05400
H980        H  0.61748572  0.55430712  0.80270413     0.08600
H981        H  0.58535486  0.58418670  0.81870888     0.08600
H982        H  0.62153272  0.64501680  0.66061228     0.08600
H983        H  0.59246692  0.67695697  0.67874703     0.08600
H984        H  0.57662492  0.63624311  0.66160605     0.05400
C985        C  0.80159328  0.36979225  0.56838866    -0.20500
C986        C  0.76952182  0.35289104  0.57044733    -0.07000
C987        C  0.74317369  0.36394992  0.54871593     0.13900
C988        C  0.74930583  0.39172448  0.52632458    -0.20500
C989        C  0.78086918  0.40934692  0.52515096    -0.07000
C990        C  0.80738500  0.39816305  0.54637400     0.13800
C991        C  0.84165820  0.41637681  0.54593146    -0.23900
H992        H  0.82185025  0.36162794  0.58492428     0.15100
H993        H  0.72914897  0.40013640  0.50977392     0.15200
C994        C  0.70861500  0.34621555  0.54842710    -0.23800
H995        H  0.85977694  0.40408279  0.56358975     0.05400
H996        H  0.83860600  0.44460958  0.55291779     0.08600
H997        H  0.85294927  0.41473787  0.52078489     0.08600
H998        H  0.69508804  0.35142815  0.57198943     0.08600
H999        H  0.71165374  0.31726467  0.54480108     0.08600
H1000       H  0.69216765  0.35637468  0.52822883     0.05400
C1001       C  0.62210268  0.21747046  0.56248547    -0.20500
C1002       C  0.62865737  0.24977567  0.57891138    -0.07000
C1003       C  0.60887471  0.27975665  0.56959624     0.13900
C1004       C  0.58394080  0.27642342  0.54451054    -0.20500
C1005       C  0.57739352  0.24396813  0.52873894    -0.07000
C1006       C  0.59676424  0.21409364  0.53809115     0.13800
C1007       C  0.59128964  0.17798721  0.52304937    -0.23900
H1008       H  0.63669409  0.19411450  0.56882561     0.15100
H1009       H  0.56908365  0.29930060  0.53728460     0.15200
C1010       C  0.61305610  0.31529163  0.58608317    -0.23800
H1011       H  0.58457132  0.15884429  0.54281858     0.05400
H1012       H  0.61522263  0.16914839  0.51077573     0.08600
H1013       H  0.57049186  0.17735940  0.50451707     0.08600
H1014       H  0.63916332  0.32568510  0.58153643     0.08600
H1015       H  0.60837053  0.31283516  0.61305534     0.08600
H1016       H  0.59471787  0.33507661  0.57634420     0.05400
C1017       C  0.60080243  0.36185074  0.70711033    -0.20500
C1018       C  0.62118749  0.34648815  0.73184327    -0.07000
C1019       C  0.61620188  0.35752237  0.76517066     0.13900
C1020       C  0.59250379  0.38457869  0.77231615    -0.20500
C1021       C  0.57310151  0.40033835  0.74729087    -0.07000
C1022       C  0.57666067  0.38819571  0.71449423     0.13800
C1023       C  0.55506849  0.40338287  0.68720442    -0.23900
H1024       H  0.60382685  0.35327392  0.68170188     0.15100
H1025       H  0.58926726  0.39378509  0.79751153     0.15200
C1026       C  0.63629031  0.34189820  0.79331979    -0.23800
H1027       H  0.56067795  0.39072696  0.66301375     0.05400
H1028       H  0.56005261  0.43219366  0.68485028     0.08600
H1029       H  0.52757156  0.39910490  0.69288657     0.08600
H1030       H  0.66410493  0.34545845  0.78884988     0.08600
H1031       H  0.63016860  0.31333731  0.79581295     0.08600
H1032       H  0.62998272  0.35474236  0.81727377     0.05400
C1033       C  0.36063186  0.19786454  0.56722782    -0.20500
C1034       C  0.34088978  0.22882469  0.56826510    -0.07000
C1035       C  0.34878265  0.25694898  0.54651403     0.13900
C1036       C  0.37731023  0.25419249  0.52561043    -0.20500
C1037       C  0.39803831  0.22396039  0.52570599    -0.07000
C1038       C  0.38912453  0.19506390  0.54615249     0.13800
C1039       C  0.40903521  0.16100706  0.54621518    -0.23900
H1040       H  0.35448261  0.17616751  0.58372005     0.15100
H1041       H  0.38346461  0.27567328  0.50888705     0.15200
C1042       C  0.32667130  0.28951891  0.54464706    -0.23800
H1043       H  0.39197145  0.13885206  0.53882508     0.05400
H1044       H  0.43112761  0.16141317  0.52901695     0.08600
H1045       H  0.41889823  0.15588767  0.57145675     0.08600
H1046       H  0.32814595  0.30460463  0.56810764     0.08600
H1047       H  0.29971888  0.28174747  0.53984716     0.08600
H1048       H  0.33496908  0.30749564  0.52447501     0.05400
C1049       C  0.26576854  0.37039038  0.56013765    -0.20500
C1050       C  0.23721833  0.36772612  0.58124306    -0.07000
C1051       C  0.20874879  0.39025477  0.57578404     0.13900
C1052       C  0.20953701  0.41403717  0.54926456    -0.20500
C1053       C  0.23773888  0.41593287  0.52801588    -0.07000
C1054       C  0.26632367  0.39417053  0.53357224     0.13800
C1055       C  0.29755969  0.39651421  0.51183515    -0.23900
H1056       H  0.28767249  0.35352555  0.56418534     0.15100
H1057       H  0.18799686  0.43143822  0.54498490     0.15200
C1058       C  0.17776807  0.39041060  0.59806697    -0.23800
H1059       H  0.31794108  0.37811407  0.52003666     0.05400
H1060       H  0.30801622  0.42384684  0.51255559     0.08600
H1061       H  0.29075036  0.38963811  0.48599702     0.08600
H1062       H  0.18577085  0.39477583  0.62406296     0.08600
H1063       H  0.16364639  0.36502726  0.59582696     0.08600
H1064       H  0.15962328  0.41181920  0.59146919     0.05400
C1065       C  0.36606744  0.37980317  0.70956976    -0.20500
C1066       C  0.34195275  0.36888590  0.73355300    -0.07000
C1067       C  0.34662815  0.38060131  0.76672475     0.13900
C1068       C  0.37484627  0.40229612  0.77462016    -0.20500
C1069       C  0.39854983  0.41265901  0.75050856    -0.07000
C1070       C  0.39400873  0.40146494  0.71759743     0.13800
C1071       C  0.41833011  0.41311964  0.69073163    -0.23900
H1072       H  0.36313804  0.37158639  0.68408983     0.15100
H1073       H  0.37827099  0.41172657  0.79970759     0.15200
C1074       C  0.32241242  0.37061009  0.79419089    -0.23800
H1075       H  0.41109298  0.40212982  0.66624441     0.05400
H1076       H  0.44461204  0.40401826  0.69651605     0.08600
H1077       H  0.41826067  0.44242893  0.68885091     0.08600
H1078       H  0.32190134  0.34142504  0.79717549     0.08600
H1079       H  0.29637527  0.38061063  0.78867219     0.08600
H1080       H  0.33030104  0.38218842  0.81824895     0.05400
C1081       C  0.88808653  0.91731677  0.66711132    -0.20500
C1082       C  0.89593313  0.92048940  0.63354051    -0.07000
C1083       C  0.88063477  0.89702536  0.61073597     0.13900
C1084       C  0.85882260  0.87005670  0.62235934    -0.20500
C1085       C  0.85177571  0.86582670  0.65634628    -0.07000
C1086       C  0.86665261  0.89034733  0.67894135     0.13800
C1087       C  0.86154878  0.88800158  0.71577063    -0.23900
H1088       H  0.90043049  0.93514213  0.68443670     0.15100
H1089       H  0.84739124  0.85210224  0.60459398     0.15200
C1090       C  0.88719444  0.89956616  0.57414165    -0.23800
H1091       H  0.87771201  0.90731581  0.72939567     0.05400
H1092       H  0.86831371  0.86117128  0.72473179     0.08600
H1093       H  0.83469828  0.89438182  0.72178413     0.08600
H1094       H  0.89933432  0.87478433  0.56525170     0.08600
H1095       H  0.90411523  0.92209649  0.56761945     0.08600
H1096       H  0.86254909  0.90327174  0.56102321     0.05400
C1097       C  0.91048288  0.12476982  0.61703480    -0.20500
C1098       C  0.92018241  0.10034227  0.64121616    -0.07000
C1099       C  0.90809681  0.10465225  0.67379782     0.13900
C1100       C  0.88546343  0.13245437  0.68117018    -0.20500
C1101       C  0.87409327  0.15639969  0.65672559    -0.07000
C1102       C  0.88774995  0.15271915  0.62421596     0.13800
C1103       C  0.87830732  0.17739477  0.59653284    -0.23900
H1104       H  0.92040600  0.12152989  0.59218875     0.15100
H1105       H  0.87610273  0.13490154  0.70628101     0.15200
C1106       C  0.91892213  0.07958079  0.70074841    -0.23800
H1107       H  0.89166511  0.17053384  0.57314583     0.05400
H1108       H  0.88569290  0.20490882  0.60307580     0.08600
H1109       H  0.85042638  0.17577699  0.59170704     0.08600
H1110       H  0.94716720  0.08023072  0.70343613     0.08600
H1111       H  0.91074206  0.05223233  0.69448063     0.08600
H1112       H  0.90744291  0.08671915  0.72497223     0.05400
C1113       C  0.14065923  0.11800167  0.62106613    -0.20500
C1114       C  0.15604375  0.11444262  0.65227352    -0.07000
C1115       C  0.14316787  0.08860552  0.67443844     0.13900
C1116       C  0.11451076  0.06837584  0.66544862    -0.20500
C1117       C  0.09804649  0.07357751  0.63513481    -0.07000
C1118       C  0.11157820  0.09813446  0.61241819     0.13800
C1119       C  0.09492279  0.10371735  0.57935231    -0.23900
H1120       H  0.15028193  0.13777220  0.60402713     0.15100
H1121       H  0.10435743  0.04881329  0.68242725     0.15200
C1122       C  0.15958739  0.08186200  0.70742595    -0.23800
H1123       H  0.10889662  0.12363986  0.56433299     0.05400
H1124       H  0.06832013  0.11318963  0.58290800     0.08600
H1125       H  0.09445742  0.07840616  0.56538974     0.08600
H1126       H  0.15620299  0.10509733  0.72382261     0.08600
H1127       H  0.18719969  0.07629463  0.70384530     0.08600
H1128       H  0.14794983  0.05877906  0.72019541     0.05400
C1129       C  0.24811653  0.64794783  0.54927294    -0.20500
C1130       C  0.21956963  0.65141318  0.57010726    -0.07000
C1131       C  0.19097940  0.62900651  0.56598321     0.13900
C1132       C  0.19248052  0.60212713  0.54223031    -0.20500
C1133       C  0.22158387  0.59784588  0.52247003    -0.07000
C1134       C  0.24920173  0.62168123  0.52499523     0.13800
C1135       C  0.27979130  0.61911734  0.50238867    -0.23900
H1136       H  0.26990810  0.66542218  0.55253662     0.15100
H1137       H  0.17114187  0.58404389  0.53926396     0.15200
C1138       C  0.15966361  0.63224954  0.58750190    -0.23800
H1139       H  0.29925011  0.63970723  0.50809874     0.05400
H1140       H  0.27157024  0.62271269  0.47635951     0.08600
H1141       H  0.29198559  0.59279077  0.50503778     0.08600
H1142       H  0.14783488  0.65863369  0.58395579     0.08600
H1143       H  0.16677396  0.62891173  0.61385915     0.08600
H1144       H  0.14016172  0.61189320  0.58129738     0.05400
C1145       C  0.35794235  0.69439176  0.57200842    -0.20500
C1146       C  0.35567177  0.72800249  0.58716859    -0.07000
C1147       C  0.37873165  0.75501404  0.57689507     0.13900
C1148       C  0.40239961  0.74783313  0.55167854    -0.20500
C1149       C  0.40403506  0.71458478  0.53654035    -0.07000
C1150       C  0.38187522  0.68739461  0.54694889     0.13800
C1151       C  0.38366264  0.65104626  0.53173351    -0.23900
H1152       H  0.34068580  0.67340177  0.57951268     0.15100
H1153       H  0.41986151  0.76837241  0.54350251     0.15200
C1154       C  0.37952365  0.79125448  0.59253805    -0.23800
H1155       H  0.36473388  0.63267240  0.54297537     0.05400
H1156       H  0.40958384  0.63982968  0.53547457     0.08600
H1157       H  0.37832977  0.65267923  0.50485129     0.08600
H1158       H  0.38360009  0.78879459  0.61957395     0.08600
H1159       H  0.35528131  0.80542948  0.58751384     0.08600
H1160       H  0.40060194  0.80784171  0.58250354     0.05400
C1161       C  0.36382308  0.63547851  0.76618595    -0.20500
C1162       C  0.36170046  0.64590337  0.73287572    -0.07000
C1163       C  0.38566095  0.63224041  0.70980255     0.13900
C1164       C  0.41015328  0.60782182  0.72054212    -0.20500
C1165       C  0.41109299  0.59641643  0.75342819    -0.07000
C1166       C  0.38818825  0.61079118  0.77668831     0.13800
C1167       C  0.38936093  0.59983352  0.81240833    -0.23900
H1168       H  0.34572982  0.64598469  0.78397806     0.15100
H1169       H  0.42807336  0.59657342  0.70296655     0.15200
C1170       C  0.38603717  0.64332320  0.67399519    -0.23800
H1171       H  0.36967956  0.61372440  0.82738008     0.05400
H1172       H  0.41486794  0.60626091  0.82285133     0.08600
H1173       H  0.38475350  0.57093704  0.81451240     0.08600
H1174       H  0.38782976  0.67258182  0.67220881     0.08600
H1175       H  0.36254986  0.63387983  0.66139976     0.08600
H1176       H  0.40819241  0.63194703  0.66046099     0.05400
C1177       C  0.07745155  0.89219068  0.66716110    -0.20500
C1178       C  0.07239962  0.89737297  0.63333314    -0.07000
C1179       C  0.08930191  0.87558904  0.61031651     0.13900
C1180       C  0.11177281  0.84944831  0.62183461    -0.20500
C1181       C  0.11760062  0.84447693  0.65591581    -0.07000
C1182       C  0.09950602  0.86598199  0.67888491     0.13800
C1183       C  0.10257695  0.86167339  0.71578296    -0.23900
H1184       H  0.06396575  0.90904996  0.68452967     0.15100
H1185       H  0.12533521  0.83328825  0.60399160     0.15200
C1186       C  0.08363028  0.88001952  0.57375428    -0.23800
H1187       H  0.08397487  0.87846156  0.72938856     0.05400
H1188       H  0.12833760  0.87001824  0.72387523     0.08600
H1189       H  0.09762750  0.83374971  0.72283217     0.08600
H1190       H  0.09136015  0.90697895  0.56587850     0.08600
H1191       H  0.05614909  0.87601160  0.56799516     0.08600
H1192       H  0.09871895  0.86065464  0.55912531     0.05400
C1193       C  0.07724756  0.74010777  0.84392976    -0.20500
C1194       C  0.07980281  0.77125700  0.86259012    -0.07000
C1195       C  0.10526068  0.79634255  0.85465013     0.13900
C1196       C  0.12752618  0.78970853  0.82807256    -0.20500
C1197       C  0.12485713  0.75867491  0.80887639    -0.07000
C1198       C  0.09916226  0.73350626  0.81707039     0.13800
C1199       C  0.09344608  0.70034372  0.79703116    -0.23900
H1200       H  0.05733249  0.72120778  0.85005784     0.15100
H1201       H  0.14715525  0.80902830  0.82225233     0.15200
C1202       C  0.10836491  0.83050170  0.87365828    -0.23800
H1203       H  0.07062112  0.68539560  0.80563484     0.05400
H1204       H  0.11575608  0.68245692  0.79932538     0.08600
H1205       H  0.08929866  0.70731792  0.77070034     0.08600
H1206       H  0.11389009  0.82487126  0.90001085     0.08600
H1207       H  0.08407570  0.84552266  0.87189507     0.08600
H1208       H  0.12929703  0.84746244  0.86388576     0.05400
C1209       C  0.90042644  0.74957373  0.84640293    -0.20500
C1210       C  0.90413200  0.78278513  0.86111309    -0.07000
C1211       C  0.88441670  0.81134953  0.84956032     0.13900
C1212       C  0.86069226  0.80576226  0.82387019    -0.20500
C1213       C  0.85642842  0.77219665  0.80900533    -0.07000
C1214       C  0.87724238  0.74376518  0.82050827     0.13800
C1215       C  0.87640949  0.70720160  0.80549768    -0.23900
H1216       H  0.91619939  0.72801483  0.85521406     0.15100
H1217       H  0.84537318  0.82782711  0.81548484     0.15200
C1218       C  0.88887794  0.84774927  0.86412042    -0.23800
H1219       H  0.89593759  0.68949985  0.81649529     0.05400
H1220       H  0.88190648  0.70886523  0.77863758     0.08600
H1221       H  0.85119273  0.69457792  0.80993268     0.08600
H1222       H  0.91567998  0.85675101  0.86049368     0.08600
H1223       H  0.88306204  0.84710617  0.89097837     0.08600
H1224       H  0.87166954  0.86731543  0.85230764     0.05400
C1225       C  0.66795498  0.89657658  0.84023167    -0.20500
C1226       C  0.69415275  0.90604392  0.86215058    -0.07000
C1227       C  0.72504625  0.88681581  0.86209454     0.13900
C1228       C  0.72984809  0.85984709  0.83876510    -0.20500
C1229       C  0.70409736  0.85079882  0.81615759    -0.07000
C1230       C  0.67239616  0.86881805  0.81739982     0.13800
C1231       C  0.64370548  0.85975563  0.79406905    -0.23900
H1232       H  0.64408505  0.91107636  0.84095383     0.15100
H1233       H  0.75399918  0.84583408  0.83797730     0.15200
C1234       C  0.75307292  0.89499806  0.88649051    -0.23800
H1235       H  0.62124817  0.87726864  0.79780338     0.05400
H1236       H  0.63518461  0.83210374  0.79831871     0.08600
H1237       H  0.65247940  0.86270988  0.76810810     0.08600
H1238       H  0.74360733  0.89080679  0.91207341     0.08600
H1239       H  0.76144818  0.92291385  0.88368877     0.08600
H1240       H  0.77568639  0.87771309  0.88274656     0.05400
C1241       C  0.68262891  0.10623741  0.84189134    -0.20500
C1242       C  0.71077727  0.09171881  0.85829677    -0.07000
C1243       C  0.74379355  0.10527325  0.85166086     0.13900
C1244       C  0.74785195  0.13231028  0.82811994    -0.20500
C1245       C  0.71971905  0.14695253  0.81128114    -0.07000
C1246       C  0.68649331  0.13374545  0.81874346     0.13800
C1247       C  0.65486759  0.14763258  0.80206972    -0.23900
H1248       H  0.65733080  0.09612311  0.84757619     0.15100
H1249       H  0.77338827  0.14217980  0.82307472     0.15200
C1250       C  0.77524711  0.09196243  0.86910600    -0.23800
H1251       H  0.65111096  0.17588275  0.80859430     0.05400
H1252       H  0.63150767  0.13314351  0.80997971     0.08600
H1253       H  0.65731332  0.14451346  0.77489720     0.08600
H1254       H  0.76965736  0.07050912  0.88696808     0.08600
H1255       H  0.78742997  0.11410334  0.88283395     0.08600
H1256       H  0.79370348  0.08156504  0.85062924     0.05400
C1257       C  0.90788401  0.27979846  0.83418145    -0.20500
C1258       C  0.91187169  0.24936509  0.85338722    -0.07000
C1259       C  0.89185704  0.21918607  0.84639966     0.13900
C1260       C  0.86759719  0.22047423  0.82079296    -0.20500
C1261       C  0.86274517  0.25130151  0.80184110    -0.07000
C1262       C  0.88375041  0.28134492  0.80857125     0.13800
C1263       C  0.88186034  0.31505860  0.78872144    -0.23900
H1264       H  0.92383241  0.30262506  0.83945617     0.15100
H1265       H  0.85201764  0.19730974  0.81589976     0.15200
C1266       C  0.89643513  0.18552115  0.86571396    -0.23800
H1267       H  0.90191449  0.33435672  0.79612916     0.05400
H1268       H  0.85683551  0.32818382  0.79269295     0.08600
H1269       H  0.88567886  0.30909746  0.76209957     0.08600
H1270       H  0.89055251  0.19020402  0.89218969     0.08600
H1271       H  0.92325096  0.17626402  0.86330991     0.08600
H1272       H  0.87927670  0.16415029  0.85668288     0.05400
C1273       C  0.12012576  0.29038536  0.80819105    -0.20500
C1274       C  0.14453715  0.26327848  0.80905035    -0.07000
C1275       C  0.14115794  0.23578297  0.83255804     0.13900
C1276       C  0.11387160  0.23648145  0.85499467    -0.20500
C1277       C  0.08941073  0.26350316  0.85425247    -0.07000
C1278       C  0.09222926  0.29055917  0.83019509     0.13800
C1279       C  0.06621497  0.31966301  0.82677875    -0.23900
H1280       H  0.12214460  0.31082132  0.78950618     0.15100
H1281       H  0.11144336  0.21570884  0.87329750     0.15200
C1282       C  0.16649364  0.20573799  0.83438179    -0.23800
H1283       H  0.07899453  0.34573300  0.82965350     0.05400
H1284       H  0.04545169  0.31811070  0.84536956     0.08600
H1285       H  0.05442565  0.31822720  0.80185716     0.08600
H1286       H  0.19280932  0.21643781  0.83708778     0.08600
H1287       H  0.16503972  0.18915087  0.81178304     0.08600
H1288       H  0.16129424  0.18813976  0.85576272     0.05400
C1289       C  0.23442322  0.07627262  0.83162344    -0.20500
C1290       C  0.25911722  0.08248178  0.85597265    -0.07000
C1291       C  0.27947293  0.11323859  0.85470984     0.13900
C1292       C  0.27490167  0.13706028  0.82867556    -0.20500
C1293       C  0.25086854  0.13053377  0.80358923    -0.07000
C1294       C  0.23020212  0.09979489  0.80522935     0.13800
C1295       C  0.20509788  0.09058600  0.77847337    -0.23900
H1296       H  0.21913435  0.05233318  0.83285199     0.15100
H1297       H  0.29065138  0.16067838  0.82757615     0.15200
C1298       C  0.30687771  0.12020585  0.88006555    -0.23800
H1299       H  0.19286398  0.06441555  0.78269950     0.05400
H1300       H  0.21860662  0.08954153  0.75434984     0.08600
H1301       H  0.18452535  0.11070632  0.77769241     0.08600
H1302       H  0.32546990  0.09804388  0.88008386     0.08600
H1303       H  0.29527395  0.12270047  0.90499695     0.08600
H1304       H  0.32110409  0.14503895  0.87480377     0.05400
C1305       C  0.30818083  0.88300498  0.84479138    -0.20500
C1306       C  0.28110709  0.90484114  0.85423956    -0.07000
C1307       C  0.24796506  0.89868607  0.84198662     0.13900
C1308       C  0.24267832  0.87070295  0.82009318    -0.20500
C1309       C  0.26971709  0.84850530  0.81015312    -0.07000
C1310       C  0.30299606  0.85463986  0.82301650     0.13800
C1311       C  0.33327800  0.83185624  0.81422498    -0.23900
H1312       H  0.33329251  0.88777588  0.85520688     0.15100
H1313       H  0.21701125  0.86603606  0.81098577     0.15200
C1314       C  0.21801997  0.92111639  0.85267260    -0.23800
H1315       H  0.35714404  0.84142711  0.82612810     0.05400
H1316       H  0.33749361  0.83219881  0.78709626     0.08600
H1317       H  0.32888147  0.80434898  0.82286314     0.08600
H1318       H  0.22247187  0.94906227  0.84542114     0.08600
H1319       H  0.21480975  0.91962251  0.87990066     0.08600
H1320       H  0.19373870  0.91217703  0.84111526     0.05400
C1321       C  0.35591961  0.70299763  0.32516989    -0.20500
C1322       C  0.35511388  0.73652795  0.30989698    -0.07000
C1323       C  0.37742410  0.76337134  0.32204365     0.13900
C1324       C  0.39968616  0.75569047  0.34832515    -0.20500
C1325       C  0.40042631  0.72218598  0.36305460    -0.07000
C1326       C  0.37817874  0.69554087  0.35144580     0.13800
C1327       C  0.37760941  0.65885698  0.36592855    -0.23900
H1328       H  0.33895424  0.68218655  0.31664493     0.15100
H1329       H  0.41708949  0.77589191  0.35731783     0.15200
C1330       C  0.37899190  0.79990639  0.30719602    -0.23800
H1331       H  0.38353496  0.63920298  0.34632370     0.05400
H1332       H  0.35180549  0.65328718  0.37607471     0.08600
H1333       H  0.39632334  0.65531281  0.38617012     0.08600
H1334       H  0.35431157  0.81376368  0.31101366     0.08600
H1335       H  0.38492013  0.79799595  0.28042052     0.08600
H1336       H  0.39918544  0.81646703  0.31881713     0.05400
C1337       C  0.24644002  0.64289779  0.33321683    -0.20500
C1338       C  0.21786826  0.65132293  0.31392278    -0.07000
C1339       C  0.18728452  0.63164444  0.31708233     0.13900
C1340       C  0.18653302  0.60290883  0.33880953    -0.20500
C1341       C  0.21549166  0.59412274  0.35723363    -0.07000
C1342       C  0.24553852  0.61454136  0.35505145     0.13800
C1343       C  0.27664490  0.60617497  0.37556276    -0.23900
H1344       H  0.26978632  0.65823683  0.33068711     0.15100
H1345       H  0.16347265  0.58718703  0.34146482     0.15200
C1346       C  0.15604461  0.63989421  0.29682328    -0.23800
H1347       H  0.29799368  0.62470396  0.37032175     0.05400
H1348       H  0.28557874  0.57893426  0.37005750     0.08600
H1349       H  0.27029664  0.60828712  0.40224643     0.08600
H1350       H  0.16235801  0.63836597  0.27009607     0.08600
H1351       H  0.14672156  0.66684327  0.30290998     0.08600
H1352       H  0.13488796  0.62098058  0.30185295     0.05400
C1353       C  0.36894102  0.64794655  0.12491719    -0.20500
C1354       C  0.36858923  0.66078246  0.15752816    -0.07000
C1355       C  0.39269561  0.64764608  0.18049630     0.13900
C1356       C  0.41479898  0.62034874  0.17077586    -0.20500
C1357       C  0.41330660  0.60586269  0.13888134    -0.07000
C1358       C  0.39088090  0.62049772  0.11534689     0.13800
C1359       C  0.38888039  0.60716491  0.08030865    -0.23900
H1360       H  0.35078239  0.65816332  0.10712636     0.15100
H1361       H  0.43259578  0.60931822  0.18847570     0.15200
C1362       C  0.39561010  0.66241516  0.21505991    -0.23800
H1363       H  0.39441055  0.62924582  0.06302997     0.05400
H1364       H  0.36273659  0.59694822  0.07537758     0.08600
H1365       H  0.40736057  0.58567104  0.07507638     0.08600
H1366       H  0.37223228  0.65643017  0.22956793     0.08600
H1367       H  0.39957538  0.69149493  0.21397652     0.08600
H1368       H  0.41754929  0.65075495  0.22857404     0.05400
C1369       C  0.29770545  0.85961171  0.06575833    -0.20500
C1370       C  0.26375808  0.85157393  0.07455759    -0.07000
C1371       C  0.23651035  0.86895829  0.05819257     0.13900
C1372       C  0.24403987  0.89433373  0.03422301    -0.20500
C1373       C  0.27785212  0.90251916  0.02602331    -0.07000
C1374       C  0.30503498  0.88497896  0.04157452     0.13800
C1375       C  0.34157023  0.89328797  0.03271476    -0.23900
H1376       H  0.31860789  0.84652736  0.07829337     0.15100
H1377       H  0.22346137  0.90787563  0.02155810     0.15200
C1378       C  0.19950939  0.86017965  0.06466026    -0.23800
H1379       H  0.35980800  0.87716842  0.04729518     0.05400
H1380       H  0.34701465  0.92164526  0.03766460     0.08600
H1381       H  0.34593786  0.88769878  0.00609634     0.08600
H1382       H  0.19201134  0.86860897  0.08987215     0.08600
H1383       H  0.19554503  0.83127824  0.06162266     0.08600
H1384       H  0.18219319  0.87391345  0.04717297     0.05400
C1385       C  0.12245821  0.80140822  0.07134237    -0.20500
C1386       C  0.12495326  0.76836986  0.08726521    -0.07000
C1387       C  0.10257381  0.74059822  0.07705641     0.13900
C1388       C  0.07886179  0.74686775  0.05174912    -0.20500
C1389       C  0.07744437  0.77946950  0.03559466    -0.07000
C1390       C  0.09952922  0.80700127  0.04524593     0.13800
C1391       C  0.09874928  0.84223464  0.02794988    -0.23900
H1392       H  0.13867062  0.82304521  0.07912421     0.15100
H1393       H  0.06145158  0.72604346  0.04410732     0.15200
C1394       C  0.10266291  0.70437147  0.09263450    -0.23800
H1395       H  0.11796685  0.86088488  0.03823564     0.05400
H1396       H  0.07306505  0.85433008  0.03075042     0.08600
H1397       H  0.10436964  0.83851553  0.00125714     0.08600
H1398       H  0.09805182  0.70673134  0.11958976     0.08600
H1399       H  0.12739154  0.69096998  0.08778278     0.08600
H1400       H  0.08228262  0.68704840  0.08236731     0.05400
C1401       C  0.80065765  0.64098660  0.31785682    -0.20500
C1402       C  0.76839614  0.65712033  0.31588203    -0.07000
C1403       C  0.74268203  0.64779140  0.33896068     0.13900
C1404       C  0.74945776  0.62185237  0.36273955    -0.20500
C1405       C  0.78091082  0.60429618  0.36345581    -0.07000
C1406       C  0.80706402  0.61429418  0.34124087     0.13800
C1407       C  0.84139044  0.59638742  0.34203409    -0.23900
H1408       H  0.82034494  0.64820085  0.30019703     0.15100
H1409       H  0.72972051  0.61428201  0.38021700     0.15200
C1410       C  0.70794432  0.66497982  0.33854461    -0.23800
H1411       H  0.85903020  0.60732410  0.32306656     0.05400
H1412       H  0.83822369  0.56763132  0.33723792     0.08600
H1413       H  0.85326408  0.60019420  0.36669193     0.08600
H1414       H  0.69417933  0.65752094  0.31564872     0.08600
H1415       H  0.71071562  0.69419675  0.33979556     0.08600
H1416       H  0.69194458  0.65642256  0.35979045     0.05400
C1417       C  0.61922512  0.70258545  0.32180817    -0.20500
C1418       C  0.61855643  0.73427740  0.30354209    -0.07000
C1419       C  0.59425835  0.76062428  0.31268734     0.13900
C1420       C  0.57313420  0.75509714  0.34038879    -0.20500
C1421       C  0.57483659  0.72389240  0.35894200    -0.07000
C1422       C  0.59766499  0.69699761  0.34910869     0.13800
C1423       C  0.59943244  0.66177397  0.36638893    -0.23900
H1424       H  0.63683161  0.68178971  0.31490084     0.15100
H1425       H  0.55463060  0.77507210  0.34744594     0.15200
C1426       C  0.58917298  0.79413036  0.29307819    -0.23800
H1427       H  0.59325699  0.64034385  0.34854549     0.05400
H1428       H  0.58138124  0.65958421  0.38743142     0.08600
H1429       H  0.62568563  0.65760563  0.37597130     0.08600
H1430       H  0.58385941  0.78747057  0.26684630     0.08600
H1431       H  0.61213203  0.81130314  0.29486285     0.08600
H1432       H  0.56719209  0.80982421  0.30244384     0.05400
C1433       C  0.60647605  0.62195281  0.17936065    -0.20500
C1434       C  0.62668292  0.63645972  0.15400579    -0.07000
C1435       C  0.62507111  0.62137219  0.12195287     0.13900
C1436       C  0.60356664  0.59207751  0.11633864    -0.20500
C1437       C  0.58289272  0.57836502  0.14163281    -0.07000
C1438       C  0.58429094  0.59357305  0.17352017     0.13800
C1439       C  0.56184179  0.58135829  0.20168315    -0.23900
H1440       H  0.60732106  0.63346205  0.20392273     0.15100
H1441       H  0.60153428  0.58087671  0.09173946     0.15200
C1442       C  0.64574530  0.63589291  0.09359508    -0.23800
H1443       H  0.54515144  0.60348669  0.20977588     0.05400
H1444       H  0.57810206  0.57313606  0.22275458     0.08600
H1445       H  0.54518734  0.55866073  0.19513748     0.08600
H1446       H  0.67332681  0.63598498  0.10003392     0.08600
H1447       H  0.63729259  0.66321029  0.08789714     0.08600
H1448       H  0.64245238  0.61981375  0.07081426     0.05400
C1449       C  0.85055227  0.80016457  0.06391522    -0.20500
C1450       C  0.85459834  0.77164709  0.08590227    -0.07000
C1451       C  0.88413579  0.75012834  0.08285950     0.13900
C1452       C  0.90774583  0.75692853  0.05738245    -0.20500
C1453       C  0.90324094  0.78499965  0.03512551    -0.07000
C1454       C  0.87454338  0.80733599  0.03890257     0.13800
C1455       C  0.86862933  0.83924639  0.01739961    -0.23900
H1456       H  0.82830307  0.81708229  0.06610649     0.15100
H1457       H  0.93004041  0.74015530  0.05471126     0.15200
C1458       C  0.89176854  0.72070642  0.10683468    -0.23800
H1459       H  0.84440656  0.83581567  0.00347506     0.05400
H1460       H  0.88957545  0.84392764  0.99945477     0.08600
H1461       H  0.86655550  0.86322060  0.03317851     0.08600
H1462       H  0.87236023  0.69939747  0.10460073     0.08600
H1463       H  0.89196721  0.73127335  0.13245431     0.08600
H1464       H  0.91715307  0.70858175  0.10202219     0.05400
C1465       C  0.72700816  0.85870386  0.05194881    -0.20500
C1466       C  0.69998730  0.84925426  0.07308585    -0.07000
C1467       C  0.66889145  0.86825510  0.07127374     0.13900
C1468       C  0.66604271  0.89665078  0.04884600    -0.20500
C1469       C  0.69352501  0.90646013  0.02834842    -0.07000
C1470       C  0.72420075  0.88679236  0.02961102     0.13800
C1471       C  0.75468363  0.89481965  0.00798201    -0.23900
H1472       H  0.75093608  0.84430739  0.05326107     0.15100
H1473       H  0.64238455  0.91143687  0.04738741     0.15200
C1474       C  0.63930183  0.85971473  0.09378423    -0.23800
H1475       H  0.77706579  0.90123353  0.02375979     0.05400
H1476       H  0.75049440  0.91740056  0.99107080     0.08600
H1477       H  0.76083816  0.87123452  0.99269922     0.08600
H1478       H  0.64736652  0.86234696  0.11997030     0.08600
H1479       H  0.63034535  0.83226707  0.08915385     0.08600
H1480       H  0.61737467  0.87779928  0.08966367     0.05400
C1481       C  0.61069996  0.22091984  0.31084955    -0.20500
C1482       C  0.62645480  0.25380741  0.30430513    -0.07000
C1483       C  0.61610198  0.28363679  0.32336624     0.13900
C1484       C  0.59107611  0.27942094  0.34829633    -0.20500
C1485       C  0.57601901  0.24637966  0.35474102    -0.07000
C1486       C  0.58588228  0.21688428  0.33566391     0.13800
C1487       C  0.57058734  0.18084987  0.34188618    -0.23900
H1488       H  0.61784635  0.19788149  0.29646423     0.15100
H1489       H  0.58322850  0.30199599  0.36299974     0.15200
C1490       C  0.63162941  0.31979096  0.31841026    -0.23800
H1491       H  0.58186440  0.16036713  0.32547513     0.05400
H1492       H  0.54262883  0.18144576  0.33731845     0.08600
H1493       H  0.57530902  0.17291413  0.36788042     0.08600
H1494       H  0.62570288  0.32960978  0.29323603     0.08600
H1495       H  0.65974845  0.31852039  0.32192487     0.08600
H1496       H  0.62136679  0.33939798  0.33632456     0.05400
C1497       C  0.80014809  0.41058238  0.33326337    -0.20500
C1498       C  0.77280183  0.41923649  0.35422872    -0.07000
C1499       C  0.74125284  0.40153594  0.35032893     0.13900
C1500       C  0.73804252  0.37490772  0.32619679    -0.20500
C1501       C  0.76567709  0.36525072  0.30571172    -0.07000
C1502       C  0.79708410  0.38380408  0.30913053     0.13800
C1503       C  0.82722683  0.37627796  0.28697399    -0.23900
H1504       H  0.82418233  0.42458088  0.33615468     0.15100
H1505       H  0.71376978  0.36131359  0.32351402     0.15200
C1506       C  0.71090416  0.41097652  0.37154161    -0.23800
H1507       H  0.84874655  0.39483358  0.29167937     0.05400
H1508       H  0.81962167  0.37910473  0.26068470     0.08600
H1509       H  0.83676343  0.34908625  0.29144729     0.08600
H1510       H  0.70445156  0.43932160  0.36807311     0.08600
H1511       H  0.71692386  0.40623274  0.39795062     0.08600
H1512       H  0.68802336  0.39494367  0.36508417     0.05400
C1513       C  0.58532735  0.35218553  0.18425854    -0.20500
C1514       C  0.60661305  0.33971685  0.15869659    -0.07000
C1515       C  0.60258577  0.35399509  0.12652380     0.13900
C1516       C  0.57829808  0.38078907  0.12111321    -0.20500
C1517       C  0.55809476  0.39398359  0.14695637    -0.07000
C1518       C  0.56116608  0.37904923  0.17876773     0.13800
C1519       C  0.53979531  0.39237846  0.20716569    -0.23900
H1520       H  0.58831545  0.34154662  0.20894181     0.15100
H1521       H  0.57585054  0.39248223  0.09679777     0.15200
C1522       C  0.62518147  0.34289494  0.09818371    -0.23800
H1523       H  0.54585790  0.37838850  0.23053511     0.05400
H1524       H  0.51227246  0.38816504  0.20176871     0.08600
H1525       H  0.54459466  0.42105739  0.21099679     0.08600
H1526       H  0.62096353  0.31448733  0.09257110     0.08600
H1527       H  0.65240653  0.34758901  0.10463363     0.08600
H1528       H  0.61958147  0.35804995  0.07534695     0.05400
C1529       C  0.67975604  0.10463992  0.04541820    -0.20500
C1530       C  0.70880501  0.09171716  0.02911202    -0.07000
C1531       C  0.74115687  0.10642353  0.03619730     0.13900
C1532       C  0.74364825  0.13358870  0.05963006    -0.20500
C1533       C  0.71465239  0.14684342  0.07617306    -0.07000
C1534       C  0.68214336  0.13200775  0.06887935     0.13800
C1535       C  0.64999087  0.14382783  0.08621061    -0.23900
H1536       H  0.65501714  0.09327597  0.03953977     0.15100
H1537       H  0.76867590  0.14468133  0.06481164     0.15200
C1538       C  0.77353542  0.09418152  0.01949593    -0.23800
H1539       H  0.62737904  0.12811282  0.07832973     0.05400
H1540       H  0.64461546  0.17193758  0.08036964     0.08600
H1541       H  0.65292097  0.14042076  0.11328848     0.08600
H1542       H  0.78547680  0.11672388  0.00617768     0.08600
H1543       H  0.76917377  0.07257154  0.00143635     0.08600
H1544       H  0.79170818  0.08438992  0.03842174     0.05400
C1545       C  0.90492731  0.28429010  0.04573899    -0.20500
C1546       C  0.90988416  0.25342878  0.02713318    -0.07000
C1547       C  0.88875625  0.22372875  0.03359449     0.13900
C1548       C  0.86320910  0.22587448  0.05823015    -0.20500
C1549       C  0.85788379  0.25697005  0.07688195    -0.07000
C1550       C  0.87943828  0.28660450  0.07031933     0.13800
C1551       C  0.87670873  0.32071843  0.08948862    -0.23900
H1552       H  0.92115880  0.30696434  0.04075395     0.15100
H1553       H  0.84714298  0.20295283  0.06269721     0.15200
C1554       C  0.89259403  0.18931111  0.01510685    -0.23800
H1555       H  0.89685488  0.33998401  0.08224438     0.05400
H1556       H  0.87976600  0.31533774  0.11625680     0.08600
H1557       H  0.85169751  0.33349993  0.08471278     0.08600
H1558       H  0.91435889  0.18946451  0.99752726     0.08600
H1559       H  0.86883890  0.18374585  0.00102102     0.08600
H1560       H  0.89693627  0.16749836  0.03294134     0.05400
C1561       C  0.26184103  0.36547519  0.32439038    -0.20500
C1562       C  0.23399794  0.36322496  0.30257782    -0.07000
C1563       C  0.20599709  0.38662807  0.30656578     0.13900
C1564       C  0.20586079  0.41013331  0.33328053    -0.20500
C1565       C  0.23346504  0.41191115  0.35520054    -0.07000
C1566       C  0.26218857  0.39010233  0.35026928     0.13800
C1567       C  0.29368883  0.39386325  0.37135990    -0.23900
H1568       H  0.28353896  0.34801351  0.32109658     0.15100
H1569       H  0.18448066  0.42799821  0.33671088     0.15200
C1570       C  0.17695945  0.38838161  0.28213202    -0.23800
H1571       H  0.31411663  0.37521660  0.36361485     0.05400
H1572       H  0.28738924  0.38839529  0.39759166     0.08600
H1573       H  0.30390934  0.42120575  0.36916693     0.08600
H1574       H  0.16147387  0.36380283  0.28322412     0.08600
H1575       H  0.18727732  0.39224771  0.25680171     0.08600
H1576       H  0.15946649  0.41079078  0.28749628     0.05400
C1577       C  0.35666916  0.25586663  0.32741565    -0.20500
C1578       C  0.34357455  0.22508813  0.31241433    -0.07000
C1579       C  0.35767769  0.19183074  0.32125770     0.13900
C1580       C  0.38515632  0.19060700  0.34363673    -0.20500
C1581       C  0.39834347  0.22151981  0.35802003    -0.07000
C1582       C  0.38344882  0.25450285  0.35029908     0.13800
C1583       C  0.39514637  0.28884184  0.36570077    -0.23900
H1584       H  0.34583323  0.28142242  0.32133470     0.15100
H1585       H  0.39635367  0.16537647  0.35020163     0.15200
C1586       C  0.34468988  0.15757308  0.30680992    -0.23800
H1587       H  0.37327587  0.30160926  0.37852159     0.05400
H1588       H  0.40465475  0.30685372  0.34606281     0.08600
H1589       H  0.41583680  0.28543505  0.38406797     0.08600
H1590       H  0.34654302  0.15834702  0.27944057     0.08600
H1591       H  0.31773025  0.15318488  0.31442700     0.08600
H1592       H  0.35971150  0.13451783  0.31554053     0.05400
C1593       C  0.36572877  0.40837275  0.11722540    -0.20500
C1594       C  0.38313809  0.42393810  0.14373148    -0.07000
C1595       C  0.37201281  0.41769815  0.17632727     0.13900
C1596       C  0.34427995  0.39500908  0.18175758    -0.20500
C1597       C  0.32767989  0.37755713  0.15548798    -0.07000
C1598       C  0.33819339  0.38507181  0.12259052     0.13800
C1599       C  0.32192613  0.36766474  0.09304163    -0.23900
H1600       H  0.37446739  0.41372691  0.09228581     0.15100
H1601       H  0.33625576  0.38997776  0.20696848     0.15200
C1602       C  0.39000272  0.43422786  0.20548488    -0.23800
H1603       H  0.33384970  0.37646505  0.06950122     0.05400
H1604       H  0.29438151  0.37454782  0.09194047     0.08600
H1605       H  0.32515851  0.33859223  0.09469676     0.08600
H1606       H  0.38846321  0.46348344  0.20410630     0.08600
H1607       H  0.41728018  0.42616596  0.20557635     0.08600
H1608       H  0.37838264  0.42591491  0.22930955     0.05400
C1609       C  0.10882790  0.23139642  0.02783069    -0.20500
C1610       C  0.09002627  0.26277210  0.02516798    -0.07000
C1611       C  0.09903747  0.29207109  0.04505294     0.13900
C1612       C  0.12641645  0.28915045  0.06750302    -0.20500
C1613       C  0.14471863  0.25736131  0.07091842    -0.07000
C1614       C  0.13585706  0.22815585  0.05047512     0.13800
C1615       C  0.15526839  0.19369968  0.05161875    -0.23900
H1616       H  0.10213104  0.20921343  0.01207950     0.15100
H1617       H  0.13289215  0.31147077  0.08315909     0.15200
C1618       C  0.07966066  0.32630862  0.04254687    -0.23800
H1619       H  0.14674058  0.17511138  0.03198587     0.05400
H1620       H  0.15105450  0.18027168  0.07559942     0.08600
H1621       H  0.18300655  0.19873089  0.04798289     0.08600
H1622       H  0.05235431  0.32178994  0.04883658     0.08600
H1623       H  0.08150999  0.33671445  0.01696581     0.08600
H1624       H  0.08995269  0.34667983  0.05968724     0.05400
C1625       C  0.22467801  0.10353973  0.07503956    -0.20500
C1626       C  0.25005593  0.12982700  0.07787829    -0.07000
C1627       C  0.27547323  0.13263334  0.05284433     0.13900
C1628       C  0.27609876  0.10775529  0.02729491    -0.20500
C1629       C  0.25196550  0.08057019  0.02570852    -0.07000
C1630       C  0.22516870  0.07902158  0.04903194     0.13800
C1631       C  0.19687061  0.05198735  0.04705243    -0.23900
H1632       H  0.20458042  0.10169844  0.09346082     0.15100
H1633       H  0.29611825  0.10891574  0.00873040     0.15200
C1634       C  0.30173285  0.16192851  0.05208291    -0.23800
H1635       H  0.17186136  0.06575492  0.04560222     0.05400
H1636       H  0.19719091  0.03515959  0.06949837     0.08600
H1637       H  0.19907067  0.03457124  0.02507493     0.08600
H1638       H  0.31980506  0.15909473  0.07299011     0.08600
H1639       H  0.28871554  0.18797061  0.05318766     0.08600
H1640       H  0.31723163  0.16137261  0.02905090     0.05400
C1641       C  0.08202975  0.88440481  0.27316774    -0.20500
C1642       C  0.06856099  0.90338038  0.24652379    -0.07000
C1643       C  0.07902196  0.89525286  0.21403545     0.13900
C1644       C  0.10321726  0.86874198  0.20906094    -0.20500
C1645       C  0.11805597  0.85032923  0.23562926    -0.07000
C1646       C  0.10685902  0.85805535  0.26827185     0.13800
C1647       C  0.12133297  0.83974195  0.29815737    -0.23900
H1648       H  0.07349942  0.89084797  0.29795863     0.15100
H1649       H  0.11087663  0.86288746  0.18387055     0.15200
C1650       C  0.06552799  0.91416876  0.18395458    -0.23800
H1651       H  0.11021073  0.85016923  0.32149970     0.05400
H1652       H  0.14942151  0.84389240  0.29921910     0.08600
H1653       H  0.11544801  0.81102443  0.29705710     0.08600
H1654       H  0.08714782  0.92638313  0.17023009     0.08600
H1655       H  0.04707340  0.93541832  0.18997730     0.08600
H1656       H  0.05251247  0.89482498  0.16752045     0.05400
C1657       C  0.85769323  0.88668273  0.20453613    -0.20500
C1658       C  0.84679180  0.86410336  0.23024650    -0.07000
C1659       C  0.85785689  0.87176109  0.26299735     0.13900
C1660       C  0.88019727  0.90049032  0.26855305    -0.20500
C1661       C  0.89160046  0.92193699  0.24251195    -0.07000
C1662       C  0.87983256  0.91524122  0.21024799     0.13800
C1663       C  0.89172634  0.93751568  0.18155748    -0.23900
H1664       H  0.84950056  0.88162672  0.17940898     0.15100
H1665       H  0.88986184  0.90558419  0.29320053     0.15200
C1666       C  0.84644863  0.85025582  0.29235670    -0.23800
H1667       H  0.88015723  0.92869872  0.15788043     0.05400
H1668       H  0.91994785  0.93575217  0.17905141     0.08600
H1669       H  0.88440598  0.96553059  0.18573227     0.08600
H1670       H  0.85580327  0.82267000  0.28999350     0.08600
H1671       H  0.81811831  0.85050387  0.29412874     0.08600
H1672       H  0.85668897  0.86106375  0.31590321     0.05400
C1673       C  0.87852237  0.13997298  0.20045178    -0.20500
C1674       C  0.86744788  0.16251775  0.22620026    -0.07000
C1675       C  0.88081653  0.15685817  0.25839042     0.13900
C1676       C  0.90330403  0.12827869  0.26391255    -0.20500
C1677       C  0.91285292  0.10531437  0.23821673    -0.07000
C1678       C  0.90082532  0.11167637  0.20604168     0.13800
C1679       C  0.91163036  0.08855531  0.17748299    -0.23900
H1680       H  0.86948928  0.14423398  0.17550435     0.15100
H1681       H  0.91323677  0.12350584  0.28848328     0.15200
C1682       C  0.87112404  0.17997770  0.28720991    -0.23800
H1683       H  0.89995960  0.09722097  0.15385396     0.05400
H1684       H  0.90365031  0.06079009  0.18208064     0.08600
H1685       H  0.93984671  0.08962167  0.17457087     0.08600
H1686       H  0.84308907  0.17868140  0.29123063     0.08600
H1687       H  0.87916132  0.20767502  0.28237382     0.08600
H1688       H  0.88375360  0.17138166  0.31040003     0.05400
C1689       C  0.13405367  0.12183001  0.26290412    -0.20500
C1690       C  0.15157091  0.11649138  0.23293931    -0.07000
C1691       C  0.13946002  0.09060552  0.21038829     0.13900
C1692       C  0.10911670  0.07245360  0.21749222    -0.20500
C1693       C  0.09057653  0.07943502  0.24638637    -0.07000
C1694       C  0.10355573  0.10354438  0.26984596     0.13800
C1695       C  0.08513803  0.10990558  0.30199473    -0.23900
H1696       H  0.14330737  0.14158032  0.28018989     0.15100
H1697       H  0.09946788  0.05286742  0.20023023     0.15200
C1698       C  0.15845910  0.08157747  0.17895430    -0.23800
H1699       H  0.09885233  0.12940786  0.31771684     0.05400
H1700       H  0.08304794  0.08469469  0.31590967     0.08600
H1701       H  0.05910011  0.12023910  0.29708720     0.08600
H1702       H  0.18552383  0.07533050  0.18471463     0.08600
H1703       H  0.15735696  0.10381625  0.16117625     0.08600
H1704       H  0.14714831  0.05817638  0.16638786     0.05400
loop_ 
_geom_bond_atom_site_label_1 
_geom_bond_atom_site_label_2 
_geom_bond_distance 
_geom_bond_site_symmetry_2 
_ccdc_geom_bond_type 
N1            C6   1.356   1_545  A
N1            C5   1.355       .  A
N1           H33   1.033       .  S
N2            C9   1.351       .  A
N2           C10   1.353   1_655  A
N3            C8   1.350       .  A
N3            C7   1.349   1_565  A
N3           H34   1.038       .  S
N4           C11   1.349       .  A
N4           C12   1.351   1_655  A
C5           C13   1.388       .  A
C5           C21   1.424       .  A
C6           C22   1.423       .  A
C6           C14   1.386       .  A
C7           C15   1.387       .  A
C7           C24   1.407       .  A
C8           C23   1.407       .  A
C8           C16   1.386       .  A
C9           C21   1.417       .  A
C9           C17   1.388       .  A
C10          C24   1.413       .  A
C10          C18   1.385       .  A
C11          C19   1.390       .  A
C11          C22   1.415       .  A
C12          C20   1.384   1_455  A
C12          C23   1.408       .  A
C13          C14   1.381   1_545  A
C13          H25   1.082       .  S
C14          H26   1.082       .  S
C15          C16   1.373   1_545  A
C15          H27   1.083       .  S
C16          H28   1.082       .  S
C17          C18   1.375   1_655  A
C17          H29   1.082       .  S
C18          H30   1.082       .  S
C19          C20   1.369       .  A
C19          H31   1.082       .  S
C20          H32   1.082   1_655  S
C21        C1677   1.493       .  S
C22        C1661   1.490       .  S
C23        C1642   1.480       .  S
C24        C1693   1.483       .  S
Zr35         O36   2.444       .  S
Zr35         O37   2.428       .  S
Zr35         O38   2.427       .  S
Zr35         O41   2.428       .  S
Zr35         O43   2.381       .  S
Zr35         O44   2.380       .  S
Zr35         O45   2.407       .  S
Zr35         O46   2.399       .  S
O36          H92   0.991       .  S
O36         H100   0.990       .  S
O37          C57   1.282       .  A
O38          C59   1.283       .  A
O39         Zr49   2.437       .  S
O39          C58   1.284       .  A
O40         Zr48   2.443       .  S
O40          C59   1.285       .  A
O41          C58   1.284       .  A
O42         Zr50   2.397       .  S
O42          C57   1.276       .  A
O43         Zr48   2.406       .  S
O43         Zr50   2.378       .  S
O44         Zr49   2.396       .  S
O44         Zr50   2.383       .  S
O44          H79   0.970       .  S
O45         Zr48   2.411       .  S
O45         Zr65   2.385       .  S
O45          H82   0.961       .  S
O46         Zr49   2.394       .  S
O46         Zr65   2.390       .  S
Zr47         O72   2.441       .  S
Zr47         O66   2.426       .  S
Zr47         O74   2.402       .  S
Zr47         O62   2.424       .  S
Zr47         O53   2.397       .  S
Zr47         O54   2.394       .  S
Zr47         O55   2.375       .  S
Zr47         O56   2.385       .  S
Zr48         O67   2.434       .  S
Zr48         O60   2.434       .  S
Zr48         O61   2.462       .  S
Zr48         O54   2.398       .  S
Zr48         O55   2.390       .  S
Zr49         O51   2.436       .  S
Zr49         O73   2.437       .  S
Zr49         O75   2.444       .  S
Zr49         O53   2.394       .  S
Zr49         O56   2.396       .  S
Zr50         O76   2.435       .  S
Zr50         O77   2.435       .  S
Zr50         O52   2.437       .  S
Zr50         O53   2.386       .  S
Zr50         O54   2.382       .  S
O51          H88   0.990       .  S
O52          H83   0.990       .  S
O52          H97   0.990       .  S
O54          H80   0.963       .  S
O55         Zr65   2.381       .  S
O56         Zr65   2.376       .  S
O56          H81   0.966       .  S
C57        C1562   1.475       .  S
C58        C1578   1.491       .  S
C59        C1597   1.491       .  S
O60          H96   0.990       .  S
O61          C63   1.290       .  A
O62          C63   1.281       .  A
C63        C1613   1.491       .  S
O64         Zr65   2.437       .  S
O64          H93   0.990       .  S
Zr65         O68   2.434       .  S
Zr65         O69   2.438       .  S
Zr65         O70   2.408       .  S
O66          C71   1.283       .  A
O67          H84   0.990       .  S
O67          H99   0.989       .  S
O68          H85   0.989       .  S
O69          H89   0.990       .  S
O69          H98   0.990       .  S
O70          C71   1.278       .  A
C71        C1626   1.481       .  S
O72          H91   0.990       .  S
O72          H95   0.990       .  S
O73          H87   0.990       .  S
O73          H94   0.990       .  S
O74          C78   1.278       .  A
O75          C78   1.287       .  A
O76          H86   0.990       .  S
O77          H90   0.990       .  S
C78        C1690   1.476       .  S
Zr101       O102   2.442       .  S
Zr101       O103   2.452       .  S
Zr101       O104   2.439       .  S
Zr101       O107   2.426       .  S
Zr101       O109   2.377       .  S
Zr101       O110   2.384       .  S
Zr101       O111   2.410       .  S
Zr101       O112   2.408       .  S
O102        H158   0.991       .  S
O102        H166   0.991       .  S
O103        C123   1.286       .  A
O104        C125   1.285       .  A
O105       Zr115   2.457       .  S
O105        C124   1.290       .  A
O106       Zr114   2.449       .  S
O106        C125   1.287       .  A
O107        C124   1.284       .  A
O108       Zr116   2.426       .  S
O108        C123   1.283       .  A
O109       Zr114   2.397       .  S
O109       Zr116   2.379       .  S
O110       Zr115   2.398       .  S
O110       Zr116   2.373       .  S
O110        H145   0.967       .  S
O111       Zr114   2.401       .  S
O111       Zr131   2.399       .  S
O111        H148   0.966       .  S
O112       Zr115   2.395       .  S
O112       Zr131   2.401       .  S
Zr113       O138   2.442       .  S
Zr113       O132   2.463       .  S
Zr113       O140   2.418       .  S
Zr113       O128   2.426       .  S
Zr113       O119   2.409       .  S
Zr113       O120   2.409       .  S
Zr113       O121   2.371       .  S
Zr113       O122   2.382       .  S
Zr114       O133   2.434       .  S
Zr114       O126   2.434       .  S
Zr114       O127   2.439       .  S
Zr114       O120   2.399       .  S
Zr114       O121   2.399       .  S
Zr115       O117   2.437       .  S
Zr115       O139   2.435       .  S
Zr115       O141   2.469       .  S
Zr115       O119   2.396       .  S
Zr115       O122   2.405       .  S
Zr116       O142   2.438       .  S
Zr116       O143   2.435       .  S
Zr116       O118   2.435       .  S
Zr116       O119   2.394       .  S
Zr116       O120   2.394       .  S
O117        H154   0.990       .  S
O118        H149   0.990       .  S
O118        H163   0.990       .  S
O120        H146   0.967       .  S
O121       Zr131   2.374       .  S
O122       Zr131   2.379       .  S
O122        H147   0.966       .  S
C123       C1482   1.504       .  S
C124       C1501   1.496       .  S
C125       C1514   1.492       .  S
O126        H162   0.990       .  S
O127        C129   1.285       .  A
O128        C129   1.283       .  A
C129       C1533   1.489       .  S
O130       Zr131   2.439       .  S
O130        H159   0.990       .  S
Zr131       O134   2.437       .  S
Zr131       O135   2.437       .  S
Zr131       O136   2.438       .  S
O132        C137   1.289       .  A
O133        H150   0.990       .  S
O133        H165   0.989       .  S
O134        H151   0.990       .  S
O135        H155   0.989       .  S
O135        H164   0.990       .  S
O136        C137   1.283       .  A
C137       C1549   1.510       .  S
O138        H157   0.990       .  S
O138        H161   0.990       .  S
O139        H153   0.990       .  S
O139        H160   0.990       .  S
O140        C144   1.282       .  A
O141        C144   1.290       .  A
O142        H152   0.990       .  S
O143        H156   0.990       .  S
C144       C1674   1.503       .  S
Zr167       O168   2.443       .  S
Zr167       O169   2.454       .  S
Zr167       O170   2.427       .  S
Zr167       O173   2.418       .  S
Zr167       O175   2.373       .  S
Zr167       O176   2.380       .  S
Zr167       O177   2.414       .  S
Zr167       O178   2.404       .  S
O168        H224   0.990       .  S
O168        H232   0.990       .  S
O169        C189   1.288       .  A
O170        C191   1.282       .  A
O171       Zr181   2.444       .  S
O171        C190   1.286       .  A
O172       Zr180   2.444       .  S
O172        C191   1.285       .  A
O173        C190   1.282       .  A
O174       Zr182   2.415       .  S
O174        C189   1.278       .  A
O175       Zr180   2.404       .  S
O175       Zr182   2.382       .  S
O176       Zr181   2.401       .  S
O176       Zr182   2.377       .  S
O176        H211   0.967       .  S
O177       Zr180   2.406       .  S
O177       Zr197   2.401       .  S
O177        H214   0.966       .  S
O178       Zr181   2.394       .  S
O178       Zr197   2.397       .  S
Zr179       O204   2.442       .  S
Zr179       O198   2.434       .  S
Zr179       O206   2.421       .  S
Zr179       O194   2.426       .  S
Zr179       O185   2.401       .  S
Zr179       O186   2.398       .  S
Zr179       O187   2.379       .  S
Zr179       O188   2.381       .  S
Zr180       O199   2.436       .  S
Zr180       O192   2.434       .  S
Zr180       O193   2.452       .  S
Zr180       O186   2.397       .  S
Zr180       O187   2.398       .  S
Zr181       O183   2.435       .  S
Zr181       O205   2.438       .  S
Zr181       O207   2.452       .  S
Zr181       O185   2.393       .  S
Zr181       O188   2.398       .  S
Zr182       O208   2.436       .  S
Zr182       O209   2.434       .  S
Zr182       O184   2.436       .  S
Zr182       O185   2.392       .  S
Zr182       O186   2.385       .  S
O183        H220   0.990       .  S
O184        H215   0.990       .  S
O184        H229   0.990       .  S
O186        H212   0.966       .  S
O187       Zr197   2.381       .  S
O188       Zr197   2.378       .  S
O188        H213   0.968       .  S
C189       C1418   1.501       .  S
C190       C1434   1.484       .  S
C191       C1402   1.478       .  S
O192        H228   0.990       .  S
O193        C195   1.288       .  A
O194        C195   1.285       .  A
C195       C1658   1.501       .  S
O196       Zr197   2.436       .  S
O196        H225   0.990       .  S
Zr197       O200   2.436       .  S
Zr197       O201   2.440       .  S
Zr197       O202   2.437       .  S
O198        C203   1.284       .  A
O199        H216   0.990       .  S
O199        H231   0.990       .  S
O200        H217   0.990       .  S
O201        H221   0.990       .  S
O201        H230   0.989       .  S
O202        C203   1.283       .  A
C203       C1450   1.494       .  S
O204        H223   0.991       .  S
O204        H227   0.990       .  S
O205        H219   0.990       .  S
O205        H226   0.990       .  S
O206        C210   1.282       .  A
O207        C210   1.288       .  A
O208        H218   0.990       .  S
O209        H222   0.990       .  S
C210       C1466   1.485       .  S
Zr233       O234   2.441       .  S
Zr233       O235   2.440       .  S
Zr233       O236   2.424       .  S
Zr233       O239   2.388       .  S
Zr233       O241   2.365       .  S
Zr233       O242   2.380       .  S
Zr233       O243   2.398       .  S
Zr233       O244   2.404       .  S
O234        H290   0.991       .  S
O234        H298   0.990       .  S
O235        C255   1.286       .  A
O236        C257   1.281       .  A
O237       Zr247   2.425       .  S
O237        C256   1.283       .  A
O238       Zr246   2.429       .  S
O238        C257   1.284       .  A
O239        C256   1.278       .  A
O240       Zr248   2.437       .  S
O240        C255   1.283       .  A
O241       Zr246   2.393       .  S
O241       Zr248   2.374       .  S
O242       Zr247   2.394       .  S
O242       Zr248   2.373       .  S
O242        H277   0.967       .  S
O243       Zr246   2.400       .  S
O243       Zr263   2.399       .  S
O243        H280   0.968       .  S
O244       Zr247   2.396       .  S
O244       Zr263   2.392       .  S
Zr245       O270   2.440       .  S
Zr245       O264   2.440       .  S
Zr245       O272   2.405       .  S
Zr245       O260   2.406       .  S
Zr245       O251   2.396       .  S
Zr245       O252   2.399       .  S
Zr245       O253   2.374       .  S
Zr245       O254   2.374       .  S
Zr246       O265   2.438       .  S
Zr246       O258   2.433       .  S
Zr246       O259   2.430       .  S
Zr246       O252   2.395       .  S
Zr246       O253   2.391       .  S
Zr247       O249   2.436       .  S
Zr247       O271   2.438       .  S
Zr247       O273   2.436       .  S
Zr247       O251   2.390       .  S
Zr247       O254   2.385       .  S
Zr248       O274   2.434       .  S
Zr248       O275   2.437       .  S
Zr248       O250   2.439       .  S
Zr248       O251   2.401       .  S
Zr248       O252   2.398       .  S
O249        H286   0.990       .  S
O250        H281   0.990       .  S
O250        H295   0.990       .  S
O252        H278   0.968       .  S
O253       Zr263   2.374       .  S
O254       Zr263   2.375       .  S
O254        H279   0.966       .  S
C255       C1322   1.501       .  S
C256       C1338   1.459       .  S
C257       C1354   1.478       .  S
O258        H294   0.990       .  S
O259        C261   1.285       .  A
O260        C261   1.278       .  A
C261       C1370   1.476       .  S
O262       Zr263   2.436       .  S
O262        H291   0.990       .  S
Zr263       O266   2.434       .  S
Zr263       O267   2.439       .  S
Zr263       O268   2.423       .  S
O264        C269   1.286       .  A
O265        H282   0.990       .  S
O265        H297   0.990       .  S
O266        H283   0.990       .  S
O267        H287   0.989       .  S
O267        H296   0.990       .  S
O268        C269   1.281       .  A
C269       C1386   1.497       .  S
O270        H289   0.990       .  S
O270        H293   0.990       .  S
O271        H285   0.990       .  S
O271        H292   0.990       .  S
O272        C276   1.281       .  A
O273        C276   1.284       .  A
O274        H284   0.990       .  S
O275        H288   0.990       .  S
C276       C1645   1.489       .  S
N299        C304   1.350       .  A
N299        C303   1.349       .  A
N299        H331   1.040       .  S
N300        C307   1.345       .  A
N300        C308   1.346   1_565  A
N301        C306   1.348       .  A
N301        C305   1.349       .  A
N301        H332   1.041       .  S
N302        C309   1.346   1_556  A
N302        C310   1.347   1_566  A
C303        C311   1.388       .  A
C303        C319   1.409       .  A
C304        C320   1.407   1_556  A
C304        C312   1.387       .  A
C305        C313   1.387       .  A
C305        C322   1.407       .  A
C306        C321   1.405   1_556  A
C306        C314   1.386       .  A
C307        C319   1.402       .  A
C307        C315   1.385       .  A
C308        C322   1.407       .  A
C308        C316   1.387       .  A
C309        C317   1.386       .  A
C309        C320   1.403       .  A
C310        C318   1.386       .  A
C310        C321   1.406       .  A
C311        C312   1.371       .  A
C311        H323   1.082       .  S
C312        H324   1.082       .  S
C313        C314   1.377       .  A
C313        H325   1.082       .  S
C314        H326   1.082       .  S
C315        C316   1.374   1_565  A
C315        H327   1.082       .  S
C316        H328   1.082       .  S
C317        C318   1.373   1_565  A
C317        H329   1.082       .  S
C318        H330   1.082       .  S
C319       C1306   1.472       .  S
C320       C1373   1.472       .  S
C321       C1629   1.474       .  S
C322       C1290   1.478       .  S
N333        C338   1.357   1_556  A
N333        C337   1.358   1_656  A
N333        H365   1.036       .  S
N334        C341   1.352       .  A
N334        C342   1.353       .  A
N335        C340   1.352       .  A
N335        C339   1.354   1_655  A
N335        H366   1.037       .  S
N336        C343   1.355       .  A
N336        C344   1.355       .  A
C337        C345   1.387       .  A
C337        C353   1.423   1_554  A
C338        C354   1.424       .  A
C338        C346   1.387       .  A
C339        C347   1.387       .  A
C339        C356   1.417       .  A
C340        C355   1.417       .  A
C340        C348   1.388       .  A
C341        C353   1.415       .  A
C341        C349   1.386       .  A
C342        C356   1.416       .  A
C342        C350   1.387       .  A
C343        C351   1.386       .  A
C343        C354   1.421   1_556  A
C344        C352   1.386       .  A
C344        C355   1.419       .  A
C345        C346   1.378   1_455  A
C345        H357   1.082       .  S
C346        H358   1.082       .  S
C347        C348   1.376   1_455  A
C347        H359   1.082       .  S
C348        H360   1.083       .  S
C349        C350   1.371       .  A
C349        H361   1.082       .  S
C350        H362   1.082       .  S
C351        C352   1.374       .  A
C351        H363   1.082       .  S
C352        H364   1.082       .  S
C353       C1610   1.497   1_556  S
C354       C1546   1.505       .  S
C355       C1258   1.493       .  S
C356       C1277   1.492       .  S
N367        C372   1.357   1_546  A
N367        C371   1.353   1_556  A
N367        H399   1.040       .  S
N368        C375   1.350       .  A
N368        C376   1.352       .  A
N369        C374   1.355   1_545  A
N369        C373   1.357       .  A
N369        H400   1.039       .  S
N370        C377   1.350       .  A
N370        C378   1.348       .  A
C371        C379   1.387       .  A
C371        C387   1.416       .  A
C372        C388   1.419       .  A
C372        C380   1.386       .  A
C373        C381   1.385       .  A
C373        C390   1.418       .  A
C374        C389   1.420       .  A
C374        C382   1.388       .  A
C375        C387   1.412   1_556  A
C375        C383   1.388       .  A
C376        C390   1.412       .  A
C376        C384   1.386       .  A
C377        C385   1.386       .  A
C377        C388   1.410   1_556  A
C378        C386   1.387       .  A
C378        C389   1.411       .  A
C379        C380   1.379   1_545  A
C379        H391   1.082       .  S
C380        H392   1.082       .  S
C381        C382   1.378   1_545  A
C381        H393   1.082       .  S
C382        H394   1.082       .  S
C383        C384   1.372       .  A
C383        H395   1.082       .  S
C384        H396   1.082       .  S
C385        C386   1.372       .  A
C385        H397   1.082       .  S
C386        H398   1.082       .  S
C387       C1530   1.485       .  S
C388       C1469   1.494       .  S
C389       C1226   1.487       .  S
C390       C1242   1.495       .  S
N401        C406   1.352       .  A
N401        C405   1.353       .  A
N401        H433   1.040       .  S
N402        C409   1.353   1_655  A
N402        C410   1.352       .  A
N403        C408   1.356       .  A
N403        C407   1.354       .  A
N403        H434   1.041       .  S
N404        C411   1.350   1_656  A
N404        C412   1.350   1_556  A
C405        C413   1.387       .  A
C405        C421   1.415       .  A
C406        C422   1.414   1_556  A
C406        C414   1.387       .  A
C407        C415   1.387       .  A
C407        C424   1.417       .  A
C408        C423   1.419   1_556  A
C408        C416   1.386       .  A
C409        C421   1.415       .  A
C409        C417   1.386       .  A
C410        C424   1.414       .  A
C410        C418   1.386       .  A
C411        C419   1.386       .  A
C411        C422   1.410       .  A
C412        C420   1.386       .  A
C412        C423   1.411       .  A
C413        C414   1.378       .  A
C413        H425   1.082       .  S
C414        H426   1.082       .  S
C415        C416   1.378       .  A
C415        H427   1.082       .  S
C416        H428   1.082       .  S
C417        C418   1.372   1_455  A
C417        H429   1.082       .  S
C418        H430   1.082       .  S
C419        C420   1.373   1_455  A
C419        H431   1.082       .  S
C420        H432   1.082       .  S
C421       C1194   1.492       .  S
C422       C1389   1.484       .  S
C423       C1453   1.497       .  S
C424       C1210   1.492       .  S
Zr435       O436   2.441       .  S
Zr435       O437   2.436       .  S
Zr435       O438   2.430       .  S
Zr435       O441   2.401       .  S
Zr435       O443   2.377       .  S
Zr435       O444   2.380       .  S
Zr435       O445   2.404       .  S
Zr435       O446   2.400       .  S
O436        H492   0.990       .  S
O436        H500   0.990       .  S
O437        C457   1.285       .  A
O438        C459   1.282       .  A
O439       Zr449   2.420       .  S
O439        C458   1.281       .  A
O440       Zr448   2.433       .  S
O440        C459   1.285       .  A
O441        C458   1.280       .  A
O442       Zr450   2.426       .  S
O442        C457   1.282       .  A
O443       Zr448   2.399       .  S
O443       Zr450   2.383       .  S
O444       Zr449   2.389       .  S
O444       Zr450   2.373       .  S
O444        H479   0.967       .  S
O445       Zr448   2.394       .  S
O445       Zr465   2.394       .  S
O445        H482   0.965       .  S
O446       Zr449   2.390       .  S
O446       Zr465   2.387       .  S
Zr447       O472   2.439       .  S
Zr447       O466   2.421       .  S
Zr447       O474   2.421       .  S
Zr447       O462   2.389       .  S
Zr447       O453   2.392       .  S
Zr447       O454   2.406       .  S
Zr447       O455   2.378       .  S
Zr447       O456   2.372       .  S
Zr448       O467   2.439       .  S
Zr448       O460   2.434       .  S
Zr448       O461   2.434       .  S
Zr448       O454   2.399       .  S
Zr448       O455   2.388       .  S
Zr449       O451   2.435       .  S
Zr449       O473   2.438       .  S
Zr449       O475   2.428       .  S
Zr449       O453   2.386       .  S
Zr449       O456   2.383       .  S
Zr450       O476   2.434       .  S
Zr450       O477   2.438       .  S
Zr450       O452   2.438       .  S
Zr450       O453   2.399       .  S
Zr450       O454   2.399       .  S
O451        H488   0.990       .  S
O452        H483   0.990       .  S
O452        H497   0.990       .  S
O454        H480   0.966       .  S
O455       Zr465   2.371       .  S
O456       Zr465   2.378       .  S
O456        H481   0.967       .  S
C457       C1197   1.493       .  S
C458       C1309   1.481       .  S
C459       C1181   1.491       .  S
O460        H496   0.989       .  S
O461        C463   1.284       .  A
O462        C463   1.277       .  A
C463       C1130   1.462       .  S
O464       Zr465   2.437       .  S
O464        H493   0.990       .  S
Zr465       O468   2.434       .  S
Zr465       O469   2.437       .  S
Zr465       O470   2.434       .  S
O466        C471   1.283       .  A
O467        H484   0.990       .  S
O467        H499   0.990       .  S
O468        H485   0.989       .  S
O469        H489   0.990       .  S
O469        H498   0.990       .  S
O470        C471   1.284       .  A
C471       C1146   1.495       .  S
O472        H491   0.991       .  S
O472        H495   0.990       .  S
O473        H487   0.990       .  S
O473        H494   0.990       .  S
O474        C478   1.281       .  A
O475        C478   1.284       .  A
O476        H486   0.990       .  S
O477        H490   0.990       .  S
C478       C1162   1.483       .  S
N501        C506   1.354       .  A
N501        C505   1.355   1_655  A
N501        H533   1.039       .  S
N502        C509   1.350       .  A
N502        C510   1.350   1_565  A
N503        C508   1.355   1_455  A
N503        C507   1.356       .  A
N503        H534   1.038       .  S
N504        C511   1.354   1_545  A
N504        C512   1.353       .  A
C505        C513   1.386   1_455  A
C505        C521   1.414       .  A
C506        C522   1.417       .  A
C506        C514   1.389       .  A
C507        C515   1.386       .  A
C507        C524   1.419       .  A
C508        C523   1.420       .  A
C508        C516   1.388       .  A
C509        C521   1.409       .  A
C509        C517   1.387       .  A
C510        C524   1.410       .  A
C510        C518   1.386       .  A
C511        C519   1.385       .  A
C511        C522   1.415       .  A
C512        C520   1.387       .  A
C512        C523   1.419       .  A
C513        C514   1.369       .  A
C513        H525   1.082   1_655  S
C514        H526   1.082       .  S
C515        C516   1.376   1_455  A
C515        H527   1.082       .  S
C516        H528   1.082       .  S
C517        C518   1.369   1_565  A
C517        H529   1.082       .  S
C518        H530   1.082       .  S
C519        C520   1.376   1_565  A
C519        H531   1.082       .  S
C520        H532   1.082       .  S
C521       C1178   1.484       .  S
C522       C1082   1.491       .  S
C523       C1098   1.497       .  S
C524       C1117   1.490       .  S
Zr535       O536   2.444       .  S
Zr535       O537   2.435       .  S
Zr535       O538   2.421       .  S
Zr535       O541   2.430       .  S
Zr535       O543   2.376       .  S
Zr535       O544   2.386       .  S
Zr535       O545   2.403       .  S
Zr535       O546   2.398       .  S
O536        H592   0.990       .  S
O536        H600   0.991       .  S
O537        C557   1.284       .  A
O538        C559   1.281       .  A
O539       Zr549   2.447       .  S
O539        C558   1.286       .  A
O540       Zr548   2.445       .  S
O540        C559   1.286       .  A
O541        C558   1.283       .  A
O542       Zr550   2.407       .  S
O542        C557   1.278       .  A
O543       Zr548   2.399       .  S
O543       Zr550   2.381       .  S
O544       Zr549   2.401       .  S
O544       Zr550   2.383       .  S
O544        H579   0.968       .  S
O545       Zr548   2.398       .  S
O545       Zr565   2.386       .  S
O545        H582   0.961       .  S
O546       Zr549   2.398       .  S
O546       Zr565   2.390       .  S
Zr547       O572   2.443       .  S
Zr547       O566   2.434       .  S
Zr547       O574   2.400       .  S
Zr547       O562   2.425       .  S
Zr547       O553   2.401       .  S
Zr547       O554   2.394       .  S
Zr547       O555   2.375       .  S
Zr547       O556   2.383       .  S
Zr548       O567   2.434       .  S
Zr548       O560   2.433       .  S
Zr548       O561   2.446       .  S
Zr548       O554   2.397       .  S
Zr548       O555   2.398       .  S
Zr549       O551   2.436       .  S
Zr549       O573   2.437       .  S
Zr549       O575   2.456       .  S
Zr549       O553   2.394       .  S
Zr549       O556   2.394       .  S
Zr550       O576   2.437       .  S
Zr550       O577   2.437       .  S
Zr550       O552   2.438       .  S
Zr550       O553   2.387       .  S
Zr550       O554   2.388       .  S
O551        H588   0.990       .  S
O552        H583   0.990       .  S
O552        H597   0.990       .  S
O554        H580   0.968       .  S
O555       Zr565   2.385       .  S
O556       Zr565   2.377       .  S
O556        H581   0.966       .  S
C557       C1050   1.487       .  S
C558       C1066   1.504       .  S
C559       C1034   1.478       .  S
O560        H596   0.989       .  S
O561        C563   1.287       .  A
O562        C563   1.282       .  A
C563       C1114   1.486       .  S
O564       Zr565   2.436       .  S
O564        H593   0.990       .  S
Zr565       O568   2.435       .  S
Zr565       O569   2.440       .  S
Zr565       O570   2.416       .  S
O566        C571   1.283       .  A
O567        H584   0.990       .  S
O567        H599   0.990       .  S
O568        H585   0.990       .  S
O569        H589   0.990       .  S
O569        H598   0.990       .  S
O570        C571   1.282       .  A
C571       C1293   1.479       .  S
O572        H591   0.990       .  S
O572        H595   0.991       .  S
O573        H587   0.990       .  S
O573        H594   0.990       .  S
O574        C578   1.276       .  A
O575        C578   1.288       .  A
O576        H586   0.990       .  S
O577        H590   0.990       .  S
C578       C1274   1.475       .  S
Zr601       O602   2.440       .  S
Zr601       O603   2.454       .  S
Zr601       O604   2.443       .  S
Zr601       O607   2.449       .  S
Zr601       O609   2.385       .  S
Zr601       O610   2.383       .  S
Zr601       O611   2.413       .  S
Zr601       O612   2.399       .  S
O602        H658   0.990       .  S
O602        H666   0.991       .  S
O603        C623   1.287       .  A
O604        C625   1.285       .  A
O605       Zr615   2.438       .  S
O605        C624   1.285       .  A
O606       Zr614   2.465       .  S
O606        C625   1.290       .  A
O607        C624   1.289       .  A
O608       Zr616   2.432       .  S
O608        C623   1.285       .  A
O609       Zr614   2.405       .  S
O609       Zr616   2.381       .  S
O610       Zr615   2.399       .  S
O610       Zr616   2.373       .  S
O610        H645   0.963       .  S
O611       Zr614   2.403       .  S
O611       Zr631   2.390       .  S
O611        H648   0.968       .  S
O612       Zr615   2.391       .  S
O612       Zr631   2.388       .  S
Zr613       O638   2.443       .  S
Zr613       O632   2.452       .  S
Zr613       O640   2.446       .  S
Zr613       O628   2.428       .  S
Zr613       O619   2.406       .  S
Zr613       O620   2.412       .  S
Zr613       O621   2.388       .  S
Zr613       O622   2.378       .  S
Zr614       O633   2.435       .  S
Zr614       O626   2.436       .  S
Zr614       O627   2.472       .  S
Zr614       O620   2.402       .  S
Zr614       O621   2.400       .  S
Zr615       O617   2.435       .  S
Zr615       O639   2.435       .  S
Zr615       O641   2.445       .  S
Zr615       O619   2.395       .  S
Zr615       O622   2.393       .  S
Zr616       O642   2.435       .  S
Zr616       O643   2.435       .  S
Zr616       O618   2.436       .  S
Zr616       O619   2.399       .  S
Zr616       O620   2.393       .  S
O617        H654   0.990       .  S
O618        H649   0.990       .  S
O618        H663   0.989       .  S
O620        H646   0.967       .  S
O621       Zr631   2.379       .  S
O622       Zr631   2.376       .  S
O622        H647   0.967       .  S
C623       C1002   1.512       .  S
C624       C1018   1.499       .  S
C625        C986   1.498       .  S
O626        H662   0.990       .  S
O627        C629   1.292       .  A
O628        C629   1.285       .  A
C629       C1101   1.511       .  S
O630       Zr631   2.434       .  S
O630        H659   0.990       .  S
Zr631       O634   2.434       .  S
Zr631       O635   2.437       .  S
Zr631       O636   2.416       .  S
O632        C637   1.288       .  A
O633        H650   0.989       .  S
O633        H665   0.991       .  S
O634        H651   0.990       .  S
O635        H655   0.990       .  S
O635        H664   0.990       .  S
O636        C637   1.280       .  A
C637       C1261   1.498       .  S
O638        H657   0.991       .  S
O638        H661   0.990       .  S
O639        H653   0.989       .  S
O639        H660   0.990       .  S
O640        C644   1.287       .  A
O641        C644   1.287       .  A
O642        H652   0.990       .  S
O643        H656   0.990       .  S
C644       C1245   1.502       .  S
Zr667       O668   2.441       .  S
Zr667       O669   2.452       .  S
Zr667       O670   2.425       .  S
Zr667       O673   2.391       .  S
Zr667       O675   2.373       .  S
Zr667       O676   2.377       .  S
Zr667       O677   2.396       .  S
Zr667       O678   2.408       .  S
O668        H724   0.991       .  S
O668        H732   0.990       .  S
O669        C689   1.287       .  A
O670        C691   1.281       .  A
O671       Zr681   2.466       .  S
O671        C690   1.290       .  A
O672       Zr680   2.442       .  S
O672        C691   1.286       .  A
O673        C690   1.276       .  A
O674       Zr682   2.417       .  S
O674        C689   1.279       .  A
O675       Zr680   2.402       .  S
O675       Zr682   2.383       .  S
O676       Zr681   2.396       .  S
O676       Zr682   2.370       .  S
O676        H711   0.967       .  S
O677       Zr680   2.396       .  S
O677       Zr697   2.386       .  S
O677        H714   0.965       .  S
O678       Zr681   2.394       .  S
O678       Zr697   2.394       .  S
Zr679       O704   2.440       .  S
Zr679       O698   2.454       .  S
Zr679       O706   2.433       .  S
Zr679       O694   2.431       .  S
Zr679       O685   2.409       .  S
Zr679       O686   2.402       .  S
Zr679       O687   2.374       .  S
Zr679       O688   2.390       .  S
Zr680       O699   2.434       .  S
Zr680       O692   2.436       .  S
Zr680       O693   2.438       .  S
Zr680       O686   2.400       .  S
Zr680       O687   2.396       .  S
Zr681       O683   2.436       .  S
Zr681       O705   2.440       .  S
Zr681       O707   2.453       .  S
Zr681       O685   2.400       .  S
Zr681       O688   2.405       .  S
Zr682       O708   2.436       .  S
Zr682       O709   2.435       .  S
Zr682       O684   2.437       .  S
Zr682       O685   2.396       .  S
Zr682       O686   2.393       .  S
O683        H720   0.989       .  S
O684        H715   0.990       .  S
O684        H729   0.990       .  S
O686        H712   0.967       .  S
O687       Zr697   2.375       .  S
O688       Zr697   2.379       .  S
O688        H713   0.965       .  S
C689        C941   1.499       .  S
C690        C954   1.481       .  S
C691        C970   1.478       .  S
O692        H728   0.990       .  S
O693        C695   1.285       .  A
O694        C695   1.284       .  A
C695       C1229   1.480       .  S
O696       Zr697   2.436       .  S
O696        H725   0.990       .  S
Zr697       O700   2.436       .  S
Zr697       O701   2.437       .  S
Zr697       O702   2.422       .  S
O698        C703   1.288       .  A
O699        H716   0.990       .  S
O699        H731   0.990       .  S
O700        H717   0.990       .  S
O701        H721   0.990       .  S
O701        H730   0.990       .  S
O702        C703   1.280       .  A
C703       C1213   1.505       .  S
O704        H723   0.990       .  S
O704        H727   0.990       .  S
O705        H719   0.990       .  S
O705        H726   0.989       .  S
O706        C710   1.283       .  A
O707        C710   1.289       .  A
O708        H718   0.990       .  S
O709        H722   0.990       .  S
C710       C1085   1.501       .  S
N733        C738   1.354       .  A
N733        C737   1.354       .  A
N733        H765   1.036       .  S
N734        C741   1.353       .  A
N734        C742   1.354       .  A
N735        C740   1.351       .  A
N735        C739   1.351       .  A
N735        H766   1.035       .  S
N736        C743   1.352       .  A
N736        C744   1.352       .  A
C737        C745   1.387       .  A
C737        C753   1.418       .  A
C738        C754   1.416       .  A
C738        C746   1.385       .  A
C739        C747   1.389       .  A
C739        C756   1.415       .  A
C740        C755   1.411       .  A
C740        C748   1.386       .  A
C741        C753   1.419       .  A
C741        C749   1.387       .  A
C742        C756   1.417       .  A
C742        C750   1.385       .  A
C743        C751   1.386       .  A
C743        C754   1.413       .  A
C744        C752   1.386       .  A
C744        C755   1.413       .  A
C745        C746   1.379       .  A
C745        H757   1.082       .  S
C746        H758   1.082       .  S
C747        C748   1.375       .  A
C747        H759   1.083       .  S
C748        H760   1.082       .  S
C749        C750   1.376       .  A
C749        H761   1.082       .  S
C750        H762   1.082       .  S
C751        C752   1.369       .  A
C751        H763   1.082       .  S
C752        H764   1.082       .  S
C753       C1021   1.494       .  S
C754       C1069   1.491       .  S
C755       C1165   1.483       .  S
C756        C973   1.488       .  S
N767        C772   1.351       .  A
N767        C771   1.355       .  A
N767        H799   1.036       .  S
N768        C775   1.350       .  A
N768        C776   1.347       .  A
N769        C774   1.356       .  A
N769        C773   1.356       .  A
N769        H800   1.038       .  S
N770        C777   1.353       .  A
N770        C778   1.354       .  A
C771        C779   1.386       .  A
C771        C787   1.414       .  A
C772        C788   1.416       .  A
C772        C780   1.389       .  A
C773        C781   1.386       .  A
C773        C790   1.419       .  A
C774        C789   1.420       .  A
C774        C782   1.388       .  A
C775        C787   1.406       .  A
C775        C783   1.383       .  A
C776        C790   1.411       .  A
C776        C784   1.389       .  A
C777        C785   1.388       .  A
C777        C788   1.418       .  A
C778        C786   1.385       .  A
C778        C789   1.416       .  A
C779        C780   1.371       .  A
C779        H791   1.082       .  S
C780        H792   1.082       .  S
C781        C782   1.376       .  A
C781        H793   1.082       .  S
C782        H794   1.082       .  S
C783        C784   1.368       .  A
C783        H795   1.082       .  S
C784        H796   1.082       .  S
C785        C786   1.373       .  A
C785        H797   1.082       .  S
C786        H798   1.082       .  S
C787       C1357   1.486       .  S
C788       C1594   1.484       .  S
C789       C1517   1.496       .  S
C790       C1437   1.484       .  S
N801        C806   1.356       .  A
N801        C805   1.357       .  A
N801        H833   1.038       .  S
N802        C809   1.355       .  A
N802        C810   1.355       .  A
N803        C808   1.354       .  A
N803        C807   1.355       .  A
N803        H834   1.039       .  S
N804        C811   1.351       .  A
N804        C812   1.352       .  A
C805        C813   1.387       .  A
C805        C821   1.422       .  A
C806        C822   1.421       .  A
C806        C814   1.387       .  A
C807        C815   1.387       .  A
C807        C824   1.417       .  A
C808        C823   1.417       .  A
C808        C816   1.387       .  A
C809        C821   1.419       .  A
C809        C817   1.386       .  A
C810        C824   1.418       .  A
C810        C818   1.386       .  A
C811        C819   1.387       .  A
C811        C822   1.413       .  A
C812        C820   1.386       .  A
C812        C823   1.411       .  A
C813        C814   1.379       .  A
C813        H825   1.082       .  S
C814        H826   1.082       .  S
C815        C816   1.377       .  A
C815        H827   1.082       .  S
C816        H828   1.083       .  S
C817        C818   1.374       .  A
C817        H829   1.082       .  S
C818        H830   1.082       .  S
C819        C820   1.371       .  A
C819        H831   1.083       .  S
C820        H832   1.082       .  S
C821        C989   1.503       .  S
C822        C957   1.492       .  S
C823       C1405   1.488       .  S
C824       C1498   1.497       .  S
N835        C840   1.355       .  A
N835        C839   1.355       .  A
N835        H867   1.039       .  S
N836        C843   1.352       .  A
N836        C844   1.352       .  A
N837        C842   1.355       .  A
N837        C841   1.352       .  A
N837        H868   1.039       .  S
N838        C845   1.350       .  A
N838        C846   1.351       .  A
C839        C847   1.387       .  A
C839        C855   1.420       .  A
C840        C856   1.418       .  A
C840        C848   1.386       .  A
C841        C849   1.388       .  A
C841        C858   1.417       .  A
C842        C857   1.415       .  A
C842        C850   1.385       .  A
C843        C855   1.415       .  A
C843        C851   1.387       .  A
C844        C858   1.414       .  A
C844        C852   1.387       .  A
C845        C853   1.387       .  A
C845        C856   1.411       .  A
C846        C854   1.385       .  A
C846        C857   1.409       .  A
C847        C848   1.380       .  A
C847        H859   1.082       .  S
C848        H860   1.082       .  S
C849        C850   1.376       .  A
C849        H861   1.082       .  S
C850        H862   1.082       .  S
C851        C852   1.372       .  A
C851        H863   1.083       .  S
C852        H864   1.083       .  S
C853        C854   1.371       .  A
C853        H865   1.082       .  S
C854        H866   1.082       .  S
C855        C938   1.494       .  S
C856       C1421   1.491       .  S
C857       C1325   1.491       .  S
C858       C1149   1.486       .  S
N869        C874   1.352       .  A
N869        C873   1.352       .  A
N869        H901   1.041       .  S
N870        C877   1.344       .  A
N870        C878   1.346       .  A
N871        C876   1.345       .  A
N871        C875   1.345       .  A
N871        H902   1.040       .  S
N872        C879   1.346       .  A
N872        C880   1.349       .  A
C873        C881   1.386       .  A
C873        C889   1.412       .  A
C874        C890   1.414       .  A
C874        C882   1.387       .  A
C875        C883   1.386       .  A
C875        C892   1.399       .  A
C876        C891   1.400       .  A
C876        C884   1.386       .  A
C877        C889   1.404       .  A
C877        C885   1.388       .  A
C878        C892   1.402       .  A
C878        C886   1.385       .  A
C879        C887   1.387       .  A
C879        C890   1.408       .  A
C880        C888   1.385       .  A
C880        C891   1.407       .  A
C881        C882   1.379       .  A
C881        H893   1.082       .  S
C882        H894   1.082       .  S
C883        C884   1.371       .  A
C883        H895   1.082       .  S
C884        H896   1.082       .  S
C885        C886   1.372       .  A
C885        H897   1.083       .  S
C886        H898   1.083       .  S
C887        C888   1.375       .  A
C887        H899   1.082       .  S
C888        H900   1.082       .  S
C889       C1565   1.478       .  S
C890       C1053   1.482       .  S
C891       C1133   1.470       .  S
C892       C1341   1.463       .  S
N903        C908   1.356       .  A
N903        C907   1.357       .  A
N903        H935   1.037       .  S
N904        C911   1.349       .  A
N904        C912   1.350       .  A
N905        C910   1.354       .  A
N905        C909   1.356       .  A
N905        H936   1.037       .  S
N906        C913   1.357       .  A
N906        C914   1.356       .  A
C907        C915   1.386       .  A
C907        C923   1.422       .  A
C908        C924   1.424       .  A
C908        C916   1.388       .  A
C909        C917   1.387       .  A
C909        C926   1.420       .  A
C910        C925   1.418       .  A
C910        C918   1.387       .  A
C911        C923   1.412       .  A
C911        C919   1.387       .  A
C912        C926   1.411       .  A
C912        C920   1.387       .  A
C913        C921   1.387       .  A
C913        C924   1.424       .  A
C914        C922   1.385       .  A
C914        C925   1.420       .  A
C915        C916   1.379       .  A
C915        H927   1.082       .  S
C916        H928   1.082       .  S
C917        C918   1.375       .  A
C917        H929   1.082       .  S
C918        H930   1.082       .  S
C919        C920   1.369       .  A
C919        H931   1.083       .  S
C920        H932   1.082       .  S
C921        C922   1.374       .  A
C921        H933   1.082       .  S
C922        H934   1.082       .  S
C923       C1037   1.490       .  S
C924       C1005   1.505       .  S
C925       C1485   1.498       .  S
C926       C1581   1.490       .  S
C937        C938   1.400       .  A
C937        C942   1.406       .  A
C937        H944   1.084       .  S
C938        C939   1.412       .  A
C939        C940   1.406       .  A
C939        C946   1.507       .  S
C940        C941   1.409       .  A
C940        H945   1.082       .  S
C941        C942   1.424       .  A
C942        C943   1.509       .  S
C943        H947   1.111       .  S
C943        H948   1.109       .  S
C943        H949   1.110       .  S
C946        H950   1.108       .  S
C946        H951   1.111       .  S
C946        H952   1.110       .  S
C953        C954   1.404       .  A
C953        C958   1.410       .  A
C953        H960   1.084       .  S
C954        C955   1.419       .  A
C955        C956   1.400       .  A
C955        C962   1.510       .  S
C956        C957   1.399       .  A
C956        H961   1.084       .  S
C957        C958   1.412       .  A
C958        C959   1.504       .  S
C959        H963   1.110       .  S
C959        H964   1.111       .  S
C959        H965   1.110       .  S
C962        H966   1.111       .  S
C962        H967   1.109       .  S
C962        H968   1.111       .  S
C969        C970   1.407       .  A
C969        C974   1.408       .  A
C969        H976   1.084       .  S
C970        C971   1.415       .  A
C971        C972   1.401       .  A
C971        C978   1.509       .  S
C972        C973   1.400       .  A
C972        H977   1.084       .  S
C973        C974   1.411       .  A
C974        C975   1.505       .  S
C975        H979   1.111       .  S
C975        H980   1.110       .  S
C975        H981   1.110       .  S
C978        H982   1.109       .  S
C978        H983   1.111       .  S
C978        H984   1.110       .  S
C985        C986   1.408       .  A
C985        C990   1.413       .  A
C985        H992   1.084       .  S
C986        C987   1.420       .  A
C987        C988   1.408       .  A
C987        C994   1.507       .  S
C988        C989   1.402       .  A
C988        H993   1.084       .  S
C989        C990   1.414       .  A
C990        C991   1.505       .  S
C991        H995   1.111       .  S
C991        H996   1.110       .  S
C991        H997   1.110       .  S
C994        H998   1.107       .  S
C994        H999   1.110       .  S
C994       H1000   1.111       .  S
C1001      C1002   1.412       .  A
C1001      C1006   1.406       .  A
C1001      H1008   1.084       .  S
C1002      C1003   1.425       .  A
C1003      C1004   1.414       .  A
C1003      C1010   1.507       .  S
C1004      C1005   1.405       .  A
C1004      H1009   1.084       .  S
C1005      C1006   1.414       .  A
C1006      C1007   1.508       .  S
C1007      H1011   1.110       .  S
C1007      H1012   1.111       .  S
C1007      H1013   1.108       .  S
C1010      H1014   1.108       .  S
C1010      H1015   1.110       .  S
C1010      H1016   1.111       .  S
C1017      C1018   1.408       .  A
C1017      C1022   1.405       .  A
C1017      H1024   1.084       .  S
C1018      C1019   1.424       .  A
C1019      C1020   1.411       .  A
C1019      C1026   1.507       .  S
C1020      C1021   1.401       .  A
C1020      H1025   1.084       .  S
C1021      C1022   1.410       .  A
C1022      C1023   1.507       .  S
C1023      H1027   1.110       .  S
C1023      H1028   1.110       .  S
C1023      H1029   1.111       .  S
C1026      H1030   1.110       .  S
C1026      H1031   1.110       .  S
C1026      H1032   1.111       .  S
C1033      C1034   1.404       .  A
C1033      C1038   1.406       .  A
C1033      H1040   1.085       .  S
C1034      C1035   1.414       .  A
C1035      C1036   1.403       .  A
C1035      C1042   1.508       .  S
C1036      C1037   1.403       .  A
C1036      H1041   1.084       .  S
C1037      C1038   1.414       .  A
C1038      C1039   1.506       .  S
C1039      H1043   1.110       .  S
C1039      H1044   1.108       .  S
C1039      H1045   1.110       .  S
C1042      H1046   1.108       .  S
C1042      H1047   1.111       .  S
C1042      H1048   1.111       .  S
C1049      C1050   1.408       .  A
C1049      C1054   1.403       .  A
C1049      H1056   1.082       .  S
C1050      C1051   1.421       .  A
C1051      C1052   1.401       .  A
C1051      C1058   1.509       .  S
C1052      C1053   1.399       .  A
C1052      H1057   1.084       .  S
C1053      C1054   1.408       .  A
C1054      C1055   1.506       .  S
C1055      H1059   1.111       .  S
C1055      H1060   1.110       .  S
C1055      H1061   1.110       .  S
C1058      H1062   1.110       .  S
C1058      H1063   1.109       .  S
C1058      H1064   1.111       .  S
C1065      C1066   1.413       .  A
C1065      C1070   1.402       .  A
C1065      H1072   1.083       .  S
C1066      C1067   1.425       .  A
C1067      C1068   1.410       .  A
C1067      C1074   1.507       .  S
C1068      C1069   1.400       .  A
C1068      H1073   1.084       .  S
C1069      C1070   1.408       .  A
C1070      C1071   1.509       .  S
C1071      H1075   1.111       .  S
C1071      H1076   1.110       .  S
C1071      H1077   1.110       .  S
C1074      H1078   1.110       .  S
C1074      H1079   1.110       .  S
C1074      H1080   1.111       .  S
C1081      C1082   1.397       .  A
C1081      C1086   1.402       .  A
C1081      H1088   1.085       .  S
C1082      C1083   1.412       .  A
C1083      C1084   1.408       .  A
C1083      C1090   1.506       .  S
C1084      C1085   1.411       .  A
C1084      H1089   1.084       .  S
C1085      C1086   1.425       .  A
C1086      C1087   1.506       .  S
C1087      H1091   1.111       .  S
C1087      H1092   1.110       .  S
C1087      H1093   1.105       .  S
C1090      H1094   1.110       .  S
C1090      H1095   1.109       .  S
C1090      H1096   1.111       .  S
C1097      C1098   1.400       .  A
C1097      C1102   1.412       .  A
C1097      H1104   1.084       .  S
C1098      C1099   1.409       .  A
C1099      C1100   1.407       .  A
C1099      C1106   1.508       .  S
C1100      C1101   1.415       .  A
C1100      H1105   1.083       .  S
C1101      C1102   1.426       .  A
C1102      C1103   1.506       .  S
C1103      H1107   1.111       .  S
C1103      H1108   1.110       .  S
C1103      H1109   1.110       .  S
C1106      H1110   1.110       .  S
C1106      H1111   1.110       .  S
C1106      H1112   1.110       .  S
C1113      C1114   1.407       .  A
C1113      C1118   1.406       .  A
C1113      H1120   1.084       .  S
C1114      C1115   1.418       .  A
C1115      C1116   1.403       .  A
C1115      C1122   1.505       .  S
C1116      C1117   1.401       .  A
C1116      H1121   1.084       .  S
C1117      C1118   1.409       .  A
C1118      C1119   1.505       .  S
C1119      H1123   1.111       .  S
C1119      H1124   1.110       .  S
C1119      H1125   1.110       .  S
C1122      H1126   1.108       .  S
C1122      H1127   1.110       .  S
C1122      H1128   1.111       .  S
C1129      C1130   1.404       .  A
C1129      C1134   1.396       .  A
C1129      H1136   1.085       .  S
C1130      C1131   1.411       .  A
C1131      C1132   1.398       .  A
C1131      C1138   1.506       .  S
C1132      C1133   1.399       .  A
C1132      H1137   1.084       .  S
C1133      C1134   1.408       .  A
C1134      C1135   1.508       .  S
C1135      H1139   1.111       .  S
C1135      H1140   1.111       .  S
C1135      H1141   1.110       .  S
C1138      H1142   1.110       .  S
C1138      H1143   1.110       .  S
C1138      H1144   1.111       .  S
C1145      C1146   1.413       .  A
C1145      C1150   1.404       .  A
C1145      H1152   1.084       .  S
C1146      C1147   1.423       .  A
C1147      C1148   1.403       .  A
C1147      C1154   1.508       .  S
C1148      C1149   1.398       .  A
C1148      H1153   1.084       .  S
C1149      C1150   1.407       .  A
C1150      C1151   1.506       .  S
C1151      H1155   1.111       .  S
C1151      H1156   1.110       .  S
C1151      H1157   1.110       .  S
C1154      H1158   1.110       .  S
C1154      H1159   1.109       .  S
C1154      H1160   1.111       .  S
C1161      C1162   1.408       .  A
C1161      C1166   1.402       .  A
C1161      H1168   1.084       .  S
C1162      C1163   1.419       .  A
C1163      C1164   1.402       .  A
C1163      C1170   1.509       .  S
C1164      C1165   1.400       .  A
C1164      H1169   1.084       .  S
C1165      C1166   1.407       .  A
C1166      C1167   1.505       .  S
C1167      H1171   1.111       .  S
C1167      H1172   1.110       .  S
C1167      H1173   1.110       .  S
C1170      H1174   1.110       .  S
C1170      H1175   1.109       .  S
C1170      H1176   1.111       .  S
C1177      C1178   1.398       .  A
C1177      C1182   1.399       .  A
C1177      H1184   1.085       .  S
C1178      C1179   1.407       .  A
C1179      C1180   1.405       .  A
C1179      C1186   1.506       .  S
C1180      C1181   1.411       .  A
C1180      H1185   1.084       .  S
C1181      C1182   1.422       .  A
C1182      C1183   1.507       .  S
C1183      H1187   1.111       .  S
C1183      H1188   1.105       .  S
C1183      H1189   1.110       .  S
C1186      H1190   1.109       .  S
C1186      H1191   1.110       .  S
C1186      H1192   1.111       .  S
C1193      C1194   1.401       .  A
C1193      C1198   1.405       .  A
C1193      H1200   1.084       .  S
C1194      C1195   1.410       .  A
C1195      C1196   1.405       .  A
C1195      C1202   1.506       .  S
C1196      C1197   1.409       .  A
C1196      H1201   1.084       .  S
C1197      C1198   1.421       .  A
C1198      C1199   1.508       .  S
C1199      H1203   1.111       .  S
C1199      H1204   1.109       .  S
C1199      H1205   1.110       .  S
C1202      H1206   1.110       .  S
C1202      H1207   1.110       .  S
C1202      H1208   1.111       .  S
C1209      C1210   1.396       .  A
C1209      C1214   1.404       .  A
C1209      H1216   1.084       .  S
C1210      C1211   1.409       .  A
C1211      C1212   1.410       .  A
C1211      C1218   1.505       .  S
C1212      C1213   1.413       .  A
C1212      H1217   1.083       .  S
C1213      C1214   1.429       .  A
C1214      C1215   1.509       .  S
C1215      H1219   1.111       .  S
C1215      H1220   1.109       .  S
C1215      H1221   1.109       .  S
C1218      H1222   1.111       .  S
C1218      H1223   1.110       .  S
C1218      H1224   1.111       .  S
C1225      C1226   1.402       .  A
C1225      C1230   1.407       .  A
C1225      H1232   1.084       .  S
C1226      C1227   1.411       .  A
C1227      C1228   1.401       .  A
C1227      C1234   1.508       .  S
C1228      C1229   1.403       .  A
C1228      H1233   1.084       .  S
C1229      C1230   1.417       .  A
C1230      C1231   1.506       .  S
C1231      H1235   1.111       .  S
C1231      H1236   1.110       .  S
C1231      H1237   1.110       .  S
C1234      H1238   1.110       .  S
C1234      H1239   1.110       .  S
C1234      H1240   1.111       .  S
C1241      C1242   1.400       .  A
C1241      C1246   1.408       .  A
C1241      H1248   1.084       .  S
C1242      C1243   1.413       .  A
C1243      C1244   1.407       .  A
C1243      C1250   1.507       .  S
C1244      C1245   1.410       .  A
C1244      H1249   1.084       .  S
C1245      C1246   1.423       .  A
C1246      C1247   1.506       .  S
C1247      H1251   1.109       .  S
C1247      H1252   1.111       .  S
C1247      H1253   1.110       .  S
C1250      H1254   1.108       .  S
C1250      H1255   1.110       .  S
C1250      H1256   1.110       .  S
C1257      C1258   1.399       .  A
C1257      C1262   1.405       .  A
C1257      H1264   1.084       .  S
C1258      C1259   1.410       .  A
C1259      C1260   1.407       .  A
C1259      C1266   1.506       .  S
C1260      C1261   1.410       .  A
C1260      H1265   1.084       .  S
C1261      C1262   1.426       .  A
C1262      C1263   1.510       .  S
C1263      H1267   1.111       .  S
C1263      H1268   1.110       .  S
C1263      H1269   1.110       .  S
C1266      H1270   1.109       .  S
C1266      H1271   1.110       .  S
C1266      H1272   1.111       .  S
C1273      C1274   1.403       .  A
C1273      C1278   1.407       .  A
C1273      H1280   1.085       .  S
C1274      C1275   1.416       .  A
C1275      C1276   1.400       .  A
C1275      C1282   1.511       .  S
C1276      C1277   1.401       .  A
C1276      H1281   1.084       .  S
C1277      C1278   1.417       .  A
C1278      C1279   1.507       .  S
C1279      H1283   1.110       .  S
C1279      H1284   1.107       .  S
C1279      H1285   1.111       .  S
C1282      H1286   1.110       .  S
C1282      H1287   1.109       .  S
C1282      H1288   1.110       .  S
C1289      C1290   1.400       .  A
C1289      C1294   1.401       .  A
C1289      H1296   1.084       .  S
C1290      C1291   1.408       .  A
C1291      C1292   1.399       .  A
C1291      C1298   1.508       .  S
C1292      C1293   1.406       .  A
C1292      H1297   1.084       .  S
C1293      C1294   1.415       .  A
C1294      C1295   1.503       .  S
C1295      H1299   1.111       .  S
C1295      H1300   1.110       .  S
C1295      H1301   1.109       .  S
C1298      H1302   1.111       .  S
C1298      H1303   1.109       .  S
C1298      H1304   1.111       .  S
C1305      C1306   1.396       .  A
C1305      C1310   1.401       .  A
C1305      H1312   1.084       .  S
C1306      C1307   1.407       .  A
C1307      C1308   1.394       .  A
C1307      C1314   1.509       .  S
C1308      C1309   1.409       .  A
C1308      H1313   1.084       .  S
C1309      C1310   1.421       .  A
C1310      C1311   1.508       .  S
C1311      H1315   1.111       .  S
C1311      H1316   1.110       .  S
C1311      H1317   1.110       .  S
C1314      H1318   1.110       .  S
C1314      H1319   1.110       .  S
C1314      H1320   1.111       .  S
C1321      C1322   1.411       .  A
C1321      C1326   1.405       .  A
C1321      H1328   1.084       .  S
C1322      C1323   1.424       .  A
C1323      C1324   1.407       .  A
C1323      C1330   1.508       .  S
C1324      C1325   1.401       .  A
C1324      H1329   1.084       .  S
C1325      C1326   1.410       .  A
C1326      C1327   1.506       .  S
C1327      H1331   1.110       .  S
C1327      H1332   1.109       .  S
C1327      H1333   1.108       .  S
C1330      H1334   1.110       .  S
C1330      H1335   1.110       .  S
C1330      H1336   1.111       .  S
C1337      C1338   1.402       .  A
C1337      C1342   1.391       .  A
C1337      H1344   1.085       .  S
C1338      C1339   1.413       .  A
C1339      C1340   1.399       .  A
C1339      C1346   1.506       .  S
C1340      C1341   1.398       .  A
C1340      H1345   1.084       .  S
C1341      C1342   1.407       .  A
C1342      C1343   1.509       .  S
C1343      H1347   1.109       .  S
C1343      H1348   1.110       .  S
C1343      H1349   1.110       .  S
C1346      H1350   1.110       .  S
C1346      H1351   1.110       .  S
C1346      H1352   1.111       .  S
C1353      C1354   1.405       .  A
C1353      C1358   1.401       .  A
C1353      H1360   1.085       .  S
C1354      C1355   1.417       .  A
C1355      C1356   1.403       .  A
C1355      C1362   1.509       .  S
C1356      C1357   1.402       .  A
C1356      H1361   1.084       .  S
C1357      C1358   1.411       .  A
C1358      C1359   1.506       .  S
C1359      H1363   1.110       .  S
C1359      H1364   1.110       .  S
C1359      H1365   1.108       .  S
C1362      H1366   1.109       .  S
C1362      H1367   1.110       .  S
C1362      H1368   1.111       .  S
C1369      C1370   1.406       .  A
C1369      C1374   1.400       .  A
C1369      H1376   1.084       .  S
C1370      C1371   1.419       .  A
C1371      C1372   1.396       .  A
C1371      C1378   1.506       .  S
C1372      C1373   1.397       .  A
C1372      H1377   1.085       .  S
C1373      C1374   1.405       .  A
C1374      C1375   1.505       .  S
C1375      H1379   1.111       .  S
C1375      H1380   1.110       .  S
C1375      H1381   1.110       .  S
C1378      H1382   1.107       .  S
C1378      H1383   1.110       .  S
C1378      H1384   1.111       .  S
C1385      C1386   1.410       .  A
C1385      C1390   1.403       .  A
C1385      H1392   1.080       .  S
C1386      C1387   1.426       .  A
C1387      C1388   1.404       .  A
C1387      C1394   1.508       .  S
C1388      C1389   1.397       .  A
C1388      H1393   1.084       .  S
C1389      C1390   1.406       .  A
C1390      C1391   1.506       .  S
C1391      H1395   1.110       .  S
C1391      H1396   1.110       .  S
C1391      H1397   1.111       .  S
C1394      H1398   1.109       .  S
C1394      H1399   1.110       .  S
C1394      H1400   1.111       .  S
C1401      C1402   1.405       .  A
C1401      C1406   1.408       .  A
C1401      H1408   1.084       .  S
C1402      C1403   1.415       .  A
C1403      C1404   1.401       .  A
C1403      C1410   1.507       .  S
C1404      C1405   1.399       .  A
C1404      H1409   1.084       .  S
C1405      C1406   1.412       .  A
C1406      C1407   1.505       .  S
C1407      H1411   1.111       .  S
C1407      H1412   1.110       .  S
C1407      H1413   1.110       .  S
C1410      H1414   1.108       .  S
C1410      H1415   1.110       .  S
C1410      H1416   1.110       .  S
C1417      C1418   1.409       .  A
C1417      C1422   1.404       .  A
C1417      H1424   1.082       .  S
C1418      C1419   1.426       .  A
C1419      C1420   1.407       .  A
C1419      C1426   1.509       .  S
C1420      C1421   1.401       .  A
C1420      H1425   1.085       .  S
C1421      C1422   1.411       .  A
C1422      C1423   1.507       .  S
C1423      H1427   1.111       .  S
C1423      H1428   1.108       .  S
C1423      H1429   1.110       .  S
C1426      H1430   1.110       .  S
C1426      H1431   1.109       .  S
C1426      H1432   1.111       .  S
C1433      C1434   1.405       .  A
C1433      C1438   1.398       .  A
C1433      H1440   1.085       .  S
C1434      C1435   1.417       .  A
C1435      C1436   1.407       .  A
C1435      C1442   1.506       .  S
C1436      C1437   1.402       .  A
C1436      H1441   1.084       .  S
C1437      C1438   1.413       .  A
C1438      C1439   1.510       .  S
C1439      H1443   1.111       .  S
C1439      H1444   1.110       .  S
C1439      H1445   1.108       .  S
C1442      H1446   1.110       .  S
C1442      H1447   1.110       .  S
C1442      H1448   1.111       .  S
C1449      C1450   1.408       .  A
C1449      C1454   1.405       .  A
C1449      H1456   1.084       .  S
C1450      C1451   1.419       .  A
C1451      C1452   1.406       .  A
C1451      C1458   1.508       .  S
C1452      C1453   1.405       .  A
C1452      H1457   1.084       .  S
C1453      C1454   1.414       .  A
C1454      C1455   1.507       .  S
C1455      H1459   1.110       .  S
C1455      H1460   1.108   1_554  S
C1455      H1461   1.111       .  S
C1458      H1462   1.109       .  S
C1458      H1463   1.110       .  S
C1458      H1464   1.111       .  S
C1465      C1466   1.404       .  A
C1465      C1470   1.400       .  A
C1465      H1472   1.085       .  S
C1466      C1467   1.416       .  A
C1467      C1468   1.412       .  A
C1467      C1474   1.506       .  S
C1468      C1469   1.406       .  A
C1468      H1473   1.084       .  S
C1469      C1470   1.414       .  A
C1470      C1471   1.508       .  S
C1471      H1475   1.111       .  S
C1471      H1476   1.108   1_554  S
C1471      H1477   1.111   1_554  S
C1474      H1478   1.110       .  S
C1474      H1479   1.110       .  S
C1474      H1480   1.111       .  S
C1481      C1482   1.411       .  A
C1481      C1486   1.403       .  A
C1481      H1488   1.083       .  S
C1482      C1483   1.424       .  A
C1483      C1484   1.413       .  A
C1483      C1490   1.507       .  S
C1484      C1485   1.404       .  A
C1484      H1489   1.084       .  S
C1485      C1486   1.409       .  A
C1486      C1487   1.508       .  S
C1487      H1491   1.111       .  S
C1487      H1492   1.110       .  S
C1487      H1493   1.110       .  S
C1490      H1494   1.110       .  S
C1490      H1495   1.110       .  S
C1490      H1496   1.111       .  S
C1497      C1498   1.403       .  A
C1497      C1502   1.410       .  A
C1497      H1504   1.084       .  S
C1498      C1499   1.411       .  A
C1499      C1500   1.407       .  A
C1499      C1506   1.507       .  S
C1500      C1501   1.409       .  A
C1500      H1505   1.084       .  S
C1501      C1502   1.420       .  A
C1502      C1503   1.507       .  S
C1503      H1507   1.111       .  S
C1503      H1508   1.111       .  S
C1503      H1509   1.109       .  S
C1506      H1510   1.110       .  S
C1506      H1511   1.110       .  S
C1506      H1512   1.111       .  S
C1513      C1514   1.408       .  A
C1513      C1518   1.407       .  A
C1513      H1520   1.084       .  S
C1514      C1515   1.420       .  A
C1515      C1516   1.408       .  A
C1515      C1522   1.506       .  S
C1516      C1517   1.401       .  A
C1516      H1521   1.084       .  S
C1517      C1518   1.412       .  A
C1518      C1519   1.506       .  S
C1519      H1523   1.111       .  S
C1519      H1524   1.110       .  S
C1519      H1525   1.110       .  S
C1522      H1526   1.109       .  S
C1522      H1527   1.110       .  S
C1522      H1528   1.111       .  S
C1529      C1530   1.401       .  A
C1529      C1534   1.406       .  A
C1529      H1536   1.084       .  S
C1530      C1531   1.410       .  A
C1531      C1532   1.400       .  A
C1531      C1538   1.507       .  S
C1532      C1533   1.408       .  A
C1532      H1537   1.085       .  S
C1533      C1534   1.420       .  A
C1534      C1535   1.507       .  S
C1535      H1539   1.111       .  S
C1535      H1540   1.109       .  S
C1535      H1541   1.110       .  S
C1538      H1542   1.110       .  S
C1538      H1543   1.108       .  S
C1538      H1544   1.110       .  S
C1545      C1546   1.401       .  A
C1545      C1550   1.410       .  A
C1545      H1552   1.084       .  S
C1546      C1547   1.417       .  A
C1547      C1548   1.412       .  A
C1547      C1554   1.507       .  S
C1548      C1549   1.411       .  A
C1548      H1553   1.084       .  S
C1549      C1550   1.425       .  A
C1550      C1551   1.507       .  S
C1551      H1555   1.111       .  S
C1551      H1556   1.109       .  S
C1551      H1557   1.109       .  S
C1554      H1558   1.108   1_554  S
C1554      H1559   1.110       .  S
C1554      H1560   1.110       .  S
C1561      C1562   1.405       .  A
C1561      C1566   1.400       .  A
C1561      H1568   1.084       .  S
C1562      C1563   1.418       .  A
C1563      C1564   1.398       .  A
C1563      C1570   1.509       .  S
C1564      C1565   1.400       .  A
C1564      H1569   1.085       .  S
C1565      C1566   1.409       .  A
C1566      C1567   1.506       .  S
C1567      H1571   1.111       .  S
C1567      H1572   1.109       .  S
C1567      H1573   1.111       .  S
C1570      H1574   1.109       .  S
C1570      H1575   1.111       .  S
C1570      H1576   1.111       .  S
C1577      C1578   1.407       .  A
C1577      C1582   1.400       .  A
C1577      H1584   1.085       .  S
C1578      C1579   1.421       .  A
C1579      C1580   1.408       .  A
C1579      C1586   1.507       .  S
C1580      C1581   1.402       .  A
C1580      H1585   1.084       .  S
C1581      C1582   1.413       .  A
C1582      C1583   1.509       .  S
C1583      H1587   1.110       .  S
C1583      H1588   1.110       .  S
C1583      H1589   1.108       .  S
C1586      H1590   1.110       .  S
C1586      H1591   1.110       .  S
C1586      H1592   1.111       .  S
C1593      C1594   1.400       .  A
C1593      C1598   1.406       .  A
C1593      H1600   1.084       .  S
C1594      C1595   1.408       .  A
C1595      C1596   1.398       .  A
C1595      C1602   1.509       .  S
C1596      C1597   1.409       .  A
C1596      H1601   1.084       .  S
C1597      C1598   1.421       .  A
C1598      C1599   1.505       .  S
C1599      H1603   1.111       .  S
C1599      H1604   1.110       .  S
C1599      H1605   1.108       .  S
C1602      H1606   1.109       .  S
C1602      H1607   1.110       .  S
C1602      H1608   1.111       .  S
C1609      C1610   1.401       .  A
C1609      C1614   1.406       .  A
C1609      H1616   1.084       .  S
C1610      C1611   1.412       .  A
C1611      C1612   1.410       .  A
C1611      C1618   1.505       .  S
C1612      C1613   1.407       .  A
C1612      H1617   1.084       .  S
C1613      C1614   1.421       .  A
C1614      C1615   1.510       .  S
C1615      H1619   1.111       .  S
C1615      H1620   1.108       .  S
C1615      H1621   1.110       .  S
C1618      H1622   1.110       .  S
C1618      H1623   1.110       .  S
C1618      H1624   1.111       .  S
C1625      C1626   1.407       .  A
C1625      C1630   1.401       .  A
C1625      H1632   1.084       .  S
C1626      C1627   1.422       .  A
C1627      C1628   1.396       .  A
C1627      C1634   1.509       .  S
C1628      C1629   1.395       .  A
C1628      H1633   1.085       .  S
C1629      C1630   1.410       .  A
C1630      C1631   1.506       .  S
C1631      H1635   1.111       .  S
C1631      H1636   1.110       .  S
C1631      H1637   1.109       .  S
C1634      H1638   1.109       .  S
C1634      H1639   1.110       .  S
C1634      H1640   1.111       .  S
C1641      C1642   1.401       .  A
C1641      C1646   1.406       .  A
C1641      H1648   1.084       .  S
C1642      C1643   1.410       .  A
C1643      C1644   1.394       .  A
C1643      C1650   1.510       .  S
C1644      C1645   1.409       .  A
C1644      H1649   1.084       .  S
C1645      C1646   1.421       .  A
C1646      C1647   1.507       .  S
C1647      H1651   1.111       .  S
C1647      H1652   1.110       .  S
C1647      H1653   1.110       .  S
C1650      H1654   1.111       .  S
C1650      H1655   1.108       .  S
C1650      H1656   1.111       .  S
C1657      C1658   1.411       .  A
C1657      C1662   1.401       .  A
C1657      H1664   1.083       .  S
C1658      C1659   1.424       .  A
C1659      C1660   1.410       .  A
C1659      C1666   1.507       .  S
C1660      C1661   1.402       .  A
C1660      H1665   1.084       .  S
C1661      C1662   1.408       .  A
C1662      C1663   1.508       .  S
C1663      H1667   1.111       .  S
C1663      H1668   1.110       .  S
C1663      H1669   1.110       .  S
C1666      H1670   1.110       .  S
C1666      H1671   1.110       .  S
C1666      H1672   1.111       .  S
C1673      C1674   1.413       .  A
C1673      C1678   1.401       .  A
C1673      H1680   1.083       .  S
C1674      C1675   1.421       .  A
C1675      C1676   1.413       .  A
C1675      C1682   1.504       .  S
C1676      C1677   1.404       .  A
C1676      H1681   1.084       .  S
C1677      C1678   1.407       .  A
C1678      C1679   1.508       .  S
C1679      H1683   1.111       .  S
C1679      H1684   1.110       .  S
C1679      H1685   1.110       .  S
C1682      H1686   1.109       .  S
C1682      H1687   1.110       .  S
C1682      H1688   1.111       .  S
C1689      C1690   1.406       .  A
C1689      C1694   1.405       .  A
C1689      H1696   1.084       .  S
C1690      C1691   1.418       .  A
C1691      C1692   1.399       .  A
C1691      C1698   1.511       .  S
C1692      C1693   1.400       .  A
C1692      H1697   1.084       .  S
C1693      C1694   1.409       .  A
C1694      C1695   1.505       .  S
C1695      H1699   1.111       .  S
C1695      H1700   1.110       .  S
C1695      H1701   1.110       .  S
C1698      H1702   1.110       .  S
C1698      H1703   1.108       .  S
C1698      H1704   1.111       .  S
