geometry optimzed in LAMMPS
_audit_creation_date              2020-11-30 
_audit_creation_method            'lammps2cif' 
_symmetry_space_group_name_H-M    'P1' 
_symmetry_Int_Tables_number       1 
_symmetry_cell_setting            triclinic 
loop_ 
_symmetry_equiv_pos_as_xyz 
  x,y,z 
_cell_length_a                    35.28468062661927 
_cell_length_b                    34.83842738537127 
_cell_length_c                    25.57190945839372 
_cell_angle_alpha                 86.92079185200069 
_cell_angle_beta                  91.1594768503153 
_cell_angle_gamma                 120.53496729911693 
loop_ 
_atom_site_label 
_atom_site_type_symbol 
_atom_site_fract_x 
_atom_site_fract_y 
_atom_site_fract_z 
_atom_site_charge 
C1          C  0.49744978  0.23851906  0.00314917     0.00460
C2          C  0.00286258  0.28026679  0.48738193     0.00460
C3          C  0.22359656  0.51117608  0.51064513     0.00460
C4          C  0.26169789  0.51090476  0.49528394     0.00460
C5          C  0.23913953  0.21553015  0.49927222     0.00460
C6          C  0.28120618  0.25215058  0.50478250     0.00460
O7          O  0.01908854  0.11758710  0.33281427    -0.80230
O8          O  0.40027961  0.37345364  0.30443364    -0.81790
O9          O  0.40026013  0.98490698  0.37407655    -0.78810
O10         O  0.04179351  0.99192557  0.40304521    -0.77190
O11         O  0.06954835  0.96635888  0.34455056    -0.78980
O12         O  0.36649978  0.98851256  0.29797042    -0.79910
O13         O  0.41892988  0.41468071  0.37677341    -0.81240
O14         O  0.48935920  0.06201318  0.39628061    -0.81530
Eu15       Eu  0.47434302  0.99250674  0.35427596     2.39200
O16         O  0.49718694  0.45080306  0.30789346    -0.89040
O17         O  0.46238332  0.04087019  0.29521874    -0.92640
C18         C  0.00315582  0.10265325  0.37874602     1.02050
C19         C  0.39658316  0.37834880  0.35266045     1.01870
C20         C  0.36842143  0.98608830  0.34858154     1.01810
C21         C  0.07081547  0.98090000  0.38868814     0.99670
H22         H  0.49277031  0.50499156  0.24845949     0.29420
O23         O  0.46487361  0.48458577  0.26363374    -1.01430
H24         H  0.05882037  0.05815050  0.34917216     0.29450
O25         O  0.04262156  0.04347027  0.31860749    -1.03970
O26         O  0.46094336  0.38868781  0.15591486    -0.81190
O27         O  0.09049298  0.13366727  0.19106545    -0.80730
O28         O  0.37275013  0.42903051  0.17027705    -0.79170
O29         O  0.05147879  0.42446485  0.29278921    -0.82510
O30         O  0.12594210  0.07596872  0.31028988    -0.80370
O31         O  0.43247013  0.08342923  0.19375054    -0.79010
O32         O  0.44179294  0.01688774  0.09256223    -0.80540
O33         O  0.08235411  0.03174551  0.11612096    -0.82460
O34         O  0.41350873  0.04330015  0.14942956    -0.79200
O35         O  0.11518525  0.02138528  0.18923896    -0.81870
O36         O  0.37768743  0.37264994  0.20796620    -0.77610
O37         O  0.00106634  0.13486834  0.22094822    -0.77640
O38         O  0.10587855  0.12789647  0.29832214    -0.77290
O39         O  0.48171921  0.37222996  0.27295061    -0.80780
O40         O  0.99184026  0.44559946  0.09401633    -0.80210
O41         O  0.07016765  0.09199932  0.11817474    -0.78530
Eu42       Eu  0.45209304  0.41661350  0.23609560     2.39770
Eu43       Eu  0.03323596  0.09079452  0.25648956     2.39570
Eu44       Eu  0.41702735  0.00379293  0.22304831     2.38400
Eu45       Eu  0.06673407  0.00351338  0.26784151     2.39880
Eu46       Eu  0.00812444  0.01421260  0.13903072     2.39790
O47         O  0.05597995  0.05053589  0.20907615    -0.92950
O48         O  0.43855676  0.46166721  0.17573476    -0.91840
C49         C  0.47626478  0.40429467  0.10972730     1.02220
C50         C  0.09726129  0.12637853  0.14442808     1.00940
C51         C  0.36252401  0.38706743  0.17143583     1.00330
C52         C  0.01819952  0.38337352  0.29546993     1.02340
C53         C  0.13217361  0.11551602  0.31761006     1.01260
C54         C  0.46593681  0.12448663  0.19427131     1.00110
C55         C  0.41249559  0.02758509  0.10622736     1.00170
C56         C  0.11541188  0.03282386  0.13975825     1.02780
H57         H  0.99100782  0.07773752  0.15819858     0.30150
O58         O  0.98693340  0.05571981  0.18538492    -1.05110
H59         H  0.03383869  0.45013546  0.18030760     0.32200
O60         O  0.02070822  0.46487620  0.19692677    -1.07670
C61         C  0.30559915  0.32706331  0.04124154    -0.05880
C62         C  0.29648817  0.28300349  0.05196865     0.00040
C63         C  0.30931972  0.27481840  0.10291995    -0.08530
C64         C  0.32424751  0.30806506  0.14072650    -0.05900
C65         C  0.33661145  0.35324117  0.12860075     0.00030
C66         C  0.32959685  0.36249048  0.07503920    -0.08440
C67         C  0.35021871  0.40812510  0.04785317     0.61940
H68         H  0.29811908  0.33564026  0.00273151     0.12640
H69         H  0.33059538  0.29904747  0.17977054     0.12650
C70         C  0.31351573  0.23488387  0.11966416     0.62180
F71         F  0.36413708  0.40780586  0.99776624    -0.22990
F72         F  0.38620852  0.43858244  0.07405300    -0.20320
F73         F  0.31936147  0.42071143  0.04271038    -0.20000
F74         F  0.30220846  0.20510703  0.08132252    -0.20050
F75         F  0.28741156  0.21336730  0.16319306    -0.20370
F76         F  0.35675116  0.24926193  0.13309514    -0.23050
C77         C  0.20721858  0.16912534  0.08259078    -0.05880
C78         C  0.20795372  0.20054838  0.04467788     0.00040
C79         C  0.17842674  0.21636857  0.05176249    -0.08530
C80         C  0.14373075  0.19240214  0.08743019    -0.05900
C81         C  0.14033614  0.15827833  0.12015696     0.00030
C82         C  0.17675587  0.15242167  0.12448620    -0.08440
C83         C  0.18945078  0.14120603  0.17755108     0.61940
H84         H  0.22964432  0.15701013  0.07973722     0.12640
H85         H  0.12017378  0.20143685  0.09353016     0.12650
C86         C  0.18148836  0.25787472  0.52528374     0.62180
F87         F  0.22223020  0.13090715  0.17346951    -0.22990
F88         F  0.15399004  0.10611719  0.20335195    -0.20320
F89         F  0.20484115  0.17793742  0.20776012    -0.20000
F90         F  0.14612794  0.24597353  0.49230571    -0.20050
F91         F  0.21949719  0.28353493  0.49696556    -0.20370
F92         F  0.18059642  0.28440831  0.56298519    -0.23050
C93         C  0.29226769  0.29311107  0.41908703    -0.05880
C94         C  0.30820591  0.27368772  0.45652910     0.00040
C95         C  0.35207831  0.28305963  0.45200153    -0.08530
C96         C  0.37969216  0.31607475  0.41485227    -0.05900
C97         C  0.36450539  0.33892725  0.38266231     0.00030
C98         C  0.31963578  0.32493419  0.38111064    -0.08440
C99         C  0.30116872  0.34392171  0.33997366     0.61940
H100        H  0.25928313  0.28655037  0.42220431     0.12640
H101        H  0.41369843  0.32510813  0.41154098     0.12650
C102        C  0.37153726  0.26152226  0.48761663     0.62180
F103        F  0.25699230  0.32849576  0.34831005    -0.22990
F104        F  0.30591062  0.33162261  0.29112681    -0.20320
F105        F  0.32353059  0.38982921  0.34029019    -0.20000
F106        F  0.40565103  0.26105544  0.46289551    -0.20050
F107        F  0.34140743  0.21781672  0.50044318    -0.20370
F108        F  0.38675762  0.28469557  0.53270276    -0.23050
C109        C  0.19218908  0.20614075  0.41801276    -0.05880
C110        C  0.21921616  0.19357956  0.44616229     0.00040
C111        C  0.22407626  0.15955845  0.42354480    -0.08530
C112        C  0.19584784  0.13462966  0.38181068    -0.05900
C113        C  0.16732924  0.14656708  0.35585820     0.00030
C114        C  0.17061604  0.18698574  0.37096858    -0.08440
C115        C  0.15333682  0.21180909  0.33706522     0.61940
H116        H  0.18896183  0.23282912  0.43146067     0.12640
H117        H  0.19681168  0.10621652  0.36831113     0.12650
C118        C  0.26189313  0.15282498  0.43822519     0.62180
F119        F  0.17060104  0.25526500  0.35164518    -0.22990
F120        F  0.10813892  0.19040625  0.34141186    -0.20320
F121        F  0.16537216  0.21396945  0.28532319    -0.20000
F122        F  0.25706917  0.11439244  0.41839628    -0.20050
F123        F  0.26557241  0.15033913  0.49193264    -0.20370
F124        F  0.29990769  0.18833971  0.41671713    -0.23050
C125        C  0.29441768  0.48508633  0.06277895    -0.05880
C126        C  0.29885066  0.52078703  0.03072086     0.00040
C127        C  0.34148731  0.05855679  0.02318707    -0.08530
C128        C  0.37798193  0.05597032  0.04212440    -0.05900
C129        C  0.37315642  0.02071856  0.07608922     0.00030
C130        C  0.32903878  0.48959270  0.09420683    -0.08440
C131        C  0.31451968  0.46275668  0.14666050     0.61940
H132        H  0.26259654  0.45489121  0.06710270     0.12640
H133        H  0.41020545  0.08404288  0.03515711     0.12650
C134        C  0.34977328  0.10274683  0.49909332     0.62180
F135        F  0.28025626  0.46479712  0.16813489    -0.22990
F136        F  0.34620306  0.47896820  0.18427311    -0.20320
F137        F  0.29931069  0.41825180  0.13976643    -0.20000
F138        F  0.37155365  0.13511893  0.03475891    -0.20050
F139        F  0.31132485  0.10221544  0.48649822    -0.20370
F140        F  0.37582742  0.11421191  0.45479575    -0.23050
C141        C  0.19898775  0.06476603  0.02780863    -0.05880
C142        C  0.22141277  0.54336103  0.04888061     0.00040
C143        C  0.22190848  0.54021341  0.10497732    -0.08530
C144        C  0.19150936  0.54625384  0.13341370    -0.05900
C145        C  0.15672690  0.04814886  0.10821422     0.00030
C146        C  0.16222311  0.06121551  0.05373527    -0.08440
C147        C  0.12919757  0.06835042  0.02087643     0.61940
H148        H  0.20199906  0.07243562  0.98627056     0.12640
H149        H  0.19003434  0.54152630  0.17561351     0.12650
C150        C  0.24527416  0.52076755  0.13542168     0.62180
F151        F  0.14186364  0.07925987  0.96895326    -0.22990
F152        F  0.12515983  0.10243555  0.03890530    -0.20320
F153        F  0.08814964  0.03042949  0.02166025    -0.20000
F154        F  0.28967664  0.54586457  0.12478923    -0.20050
F155        F  0.22687501  0.47721349  0.12177261    -0.20370
F156        F  0.24036824  0.52015250  0.18915562    -0.23050
C157        C  0.30112059  0.45187132  0.40979052    -0.05880
C158        C  0.33309593  0.98863760  0.37894598     0.00040
C159        C  0.33023279  0.02803204  0.37608784    -0.08530
C160        C  0.29918338  0.03068726  0.40791214    -0.05900
C161        C  0.27084343  0.49603596  0.44382218     0.00030
C162        C  0.26906314  0.45442357  0.44017333    -0.08440
C163        C  0.23145525  0.41125215  0.46368801     0.61940
H164        H  0.30065004  0.42057904  0.41003330     0.12640
H165        H  0.29922874  0.06168917  0.40788044     0.12650
C166        C  0.36181745  0.06850339  0.34167281     0.62180
F167        F  0.20746018  0.38428163  0.42355174    -0.22990
F168        F  0.20343164  0.41817609  0.49323111    -0.20320
F169        F  0.24711772  0.38893592  0.49494075    -0.20000
F170        F  0.35529240  0.05811958  0.28962479    -0.20050
F171        F  0.40473718  0.08157961  0.35501147    -0.20370
F172        F  0.35589628  0.10444850  0.34712429    -0.23050
C173        C  0.18663793  0.00346634  0.42554190    -0.05880
C174        C  0.18211563  0.48980482  0.47828443     0.00040
C175        C  0.13918719  0.47004146  0.50153308    -0.08530
C176        C  0.10553096  0.47277536  0.47289369    -0.05900
C177        C  0.10994977  0.48551656  0.41945213     0.00030
C178        C  0.15096127  0.99630764  0.39411572    -0.08440
C179        C  0.15897082  0.99630706  0.33506890     0.61940
H180        H  0.21906977  0.02119407  0.40865574     0.12640
H181        H  0.07364134  0.45987261  0.49070189     0.12650
C182        C  0.12695281  0.44201497  0.05354303     0.62180
F183        F  0.20314997  0.01473433  0.32280135    -0.22990
F184        F  0.14476592  0.01992980  0.30499302    -0.20320
F185        F  0.13804823  0.95323359  0.31899524    -0.20000
F186        F  0.14974952  0.46505859  0.09524205    -0.20050
F187        F  0.13522798  0.40761104  0.55003158    -0.20370
F188        F  0.08311358  0.42434682  0.06654624    -0.23050
C189        C  0.99116961  0.34309234  0.10395149    -0.05880
C190        C  0.48048974  0.37247452  0.07707669     0.00040
C191        C  0.47776712  0.37171330  0.02221720    -0.08530
C192        C  0.48089809  0.33817045  0.99769126    -0.05900
C193        C  0.49582062  0.31088405  0.02320078     0.00030
C194        C  0.00575223  0.31844334  0.07792771    -0.08440
C195        C  0.03916306  0.31223340  0.10975372     0.61940
H196        H  0.99526661  0.34490518  0.14611086     0.12640
H197        H  0.47385244  0.33528794  0.95659482     0.12650
C198        C  0.46924786  0.40394777  0.98935679     0.62180
F199        F  0.06652296  0.35032123  0.13633540    -0.22990
F200        F  0.06625412  0.30601269  0.07885998    -0.20320
F201        F  0.01813612  0.27733135  0.14669634    -0.20000
F202        F  0.50027102  0.44759658  0.99825284    -0.20050
F203        F  0.42817199  0.39632924  0.00165377    -0.20370
F204        F  0.47118710  0.39888246  0.93649189    -0.23050
C205        C  0.45013660  0.20163272  0.08763614    -0.05880
C206        C  0.49136965  0.22157317  0.06105044     0.00040
C207        C  0.02305997  0.21232746  0.08357924    -0.08530
C208        C  0.01284719  0.18260090  0.12741595    -0.05900
C209        C  0.47148535  0.16003914  0.15211004     0.00030
C210        C  0.43967787  0.17088479  0.13266011    -0.08440
C211        C  0.39546228  0.15049895  0.15964832     0.61940
H212        H  0.42545471  0.20835609  0.07128446     0.12640
H213        H  0.03781970  0.17497751  0.14063760     0.12650
C214        C  0.06775093  0.22947012  0.06014407     0.62180
F215        F  0.37019739  0.16729281  0.13810127    -0.22990
F216        F  0.40152429  0.15971055  0.21211564    -0.20320
F217        F  0.37278619  0.10484703  0.15515242    -0.20000
F218        F  0.07930590  0.26129218  0.02054587    -0.20050
F219        F  0.06814403  0.19371097  0.03976883    -0.20370
F220        F  0.09832133  0.24918131  0.09925649    -0.23050
C221        C  0.48093208  0.27964993  0.39088309    -0.05880
C222        C  0.01299067  0.29850871  0.43018371     0.00040
C223        C  0.05100003  0.34051104  0.41707573    -0.08530
C224        C  0.05281739  0.36451478  0.37042752    -0.05900
C225        C  0.01918608  0.34872525  0.33371695     0.00030
C226        C  0.98381474  0.30348168  0.34239457    -0.08540
C227        C  0.44837938  0.28017918  0.30196541     0.61940
H228        H  0.45233442  0.24711718  0.39947557     0.12640
H229        H  0.07913530  0.39839761  0.36575942     0.12650
C230        C  0.08556450  0.36605052  0.45639032     0.62180
F231        F  0.42639813  0.23429822  0.31104157    -0.22990
F232        F  0.96699536  0.28964829  0.25240797    -0.20320
F233        F  0.41790822  0.29386615  0.30382526    -0.20000
F234        F  0.09398986  0.33991975  0.49093903    -0.20050
F235        F  0.06912285  0.38665171  0.98367352    -0.20370
F236        F  0.12505030  0.39715608  0.43257162    -0.23050
C237        C  0.48095120  0.16052628  0.48628507    -0.05880
C238        C  0.99979520  0.20549975  0.46609410     0.00040
C239        C  0.02131497  0.21401405  0.41579909    -0.08530
C240        C  0.01149526  0.17740930  0.38611271    -0.05900
C241        C  0.99988305  0.13562982  0.41046910     0.00030
C242        C  0.48812758  0.12888006  0.46355032    -0.08440
C243        C  0.48738523  0.09167432  0.49770252     0.61940
H244        H  0.46407970  0.15058809  0.52325120     0.12640
H245        H  0.02176073  0.18431856  0.34533642     0.12650
C246        C  0.06259703  0.25575420  0.39497104     0.62180
F247        F  0.48695446  0.09930669  0.55013646    -0.22990
F248        F  0.52509750  0.08996921  0.48918515    -0.20320
F249        F  0.45073512  0.05123759  0.48671541    -0.20000
F250        F  0.08349486  0.28638922  0.43128485    -0.20050
F251        F  0.05328444  0.27436948  0.35114452    -0.20370
F252        F  0.09332025  0.24509034  0.38038073    -0.23050
C253        C  0.49744891  0.23851887  0.50315326     0.00460
C254        C  0.00286358  0.28027044  0.98736816     0.00460
C255        C  0.22359687  0.51117652  0.01065699     0.00460
C256        C  0.26169992  0.51090822  0.99529603     0.00460
C257        C  0.23913570  0.21553021  0.99927606     0.00460
C258        C  0.28120265  0.25215030  0.00478347     0.00460
O259        O  0.01908946  0.11758329  0.83281295    -0.80230
O260        O  0.40027347  0.37345491  0.80443695    -0.81790
O261        O  0.40025203  0.98489744  0.87407745    -0.78810
O262        O  0.04179284  0.99192200  0.90304975    -0.77190
O263        O  0.06954570  0.96635311  0.84455584    -0.78980
O264        O  0.36649032  0.98850079  0.79797120    -0.79910
O265        O  0.41892465  0.41468105  0.87677759    -0.81240
O266        O  0.48935028  0.06200450  0.89628268    -0.81530
Eu267      Eu  0.47433474  0.99249719  0.85427862     2.39200
O268        O  0.49718036  0.45080054  0.80789996    -0.89040
O269        O  0.46237148  0.04085822  0.79522114    -0.92640
C270        C  0.00315339  0.10264911  0.87874326     1.02050
C271        C  0.39657717  0.37834972  0.85266394     1.01870
C272        C  0.36841299  0.98607786  0.84858233     1.01810
C273        C  0.07081413  0.98089559  0.88869295     0.99670
H274        H  0.49276538  0.50499039  0.74846390     0.29420
O275        O  0.46486838  0.48458502  0.76363706    -1.01430
H276        H  0.05882066  0.05814650  0.84917484     0.29450
O277        O  0.04262193  0.04346563  0.81861041    -1.03970
O278        O  0.46093948  0.38868687  0.65591983    -0.81190
O279        O  0.09049615  0.13365457  0.69106439    -0.80730
O280        O  0.37274713  0.42902945  0.67028003    -0.79170
O281        O  0.05149946  0.42448446  0.79278435    -0.82510
O282        O  0.12594281  0.07596422  0.81029486    -0.80370
O283        O  0.43246075  0.08341962  0.69375007    -0.79010
O284        O  0.44178726  0.01688210  0.59256239    -0.80540
O285        O  0.08235508  0.03174349  0.61612640    -0.82460
O286        O  0.41349976  0.04329078  0.64943093    -0.79200
O287        O  0.11518762  0.02138379  0.68924342    -0.81870
O288        O  0.37768420  0.37264872  0.70796844    -0.77610
O289        O  0.00106654  0.13486238  0.72095229    -0.77640
O290        O  0.10587997  0.12789214  0.79832219    -0.77290
O291        O  0.48171603  0.37222974  0.77295154    -0.80780
O292        O  0.99185970  0.44561613  0.59400461    -0.80210
O293        O  0.07016244  0.09199199  0.61816908    -0.78530
Eu294      Eu  0.45208873  0.41661311  0.73609981     2.39770
Eu295      Eu  0.03323730  0.09078910  0.75649055     2.39570
Eu296      Eu  0.41701732  0.00378230  0.72304855     2.38400
Eu297      Eu  0.06673480  0.00350866  0.76784525     2.39880
Eu298      Eu  0.00812301  0.01420733  0.63903327     2.39790
O299        O  0.05597959  0.05052935  0.70907815    -0.92950
O300        O  0.43855331  0.46166663  0.67573764    -0.91840
C301        C  0.47626161  0.40429322  0.60973244     1.02220
C302        C  0.09726078  0.12636726  0.64442450     1.00940
C303        C  0.36252130  0.38706643  0.67143777     1.00330
C304        C  0.01821817  0.38339421  0.79546062     1.02340
C305        C  0.13217424  0.11551187  0.81761316     1.01260
C306        C  0.46592749  0.12447716  0.69427136     1.00110
C307        C  0.41248908  0.02757834  0.60622760     1.00170
C308        C  0.11541376  0.03282308  0.63976302     1.02780
H309        H  0.99100600  0.07773220  0.65820094     0.30150
O310        O  0.98693254  0.05571480  0.68538728    -1.05110
H311        H  0.03386656  0.45015665  0.68029422     0.32200
O312        O  0.02074023  0.46489925  0.69691071    -1.07670
C313        C  0.30559293  0.32705997  0.54124440    -0.05880
C314        C  0.29648868  0.28300225  0.55196904     0.00040
C315        C  0.30932416  0.27481902  0.60291895    -0.08530
C316        C  0.32424978  0.30806493  0.64072618    -0.05900
C317        C  0.33660977  0.35324020  0.62860172     0.00030
C318        C  0.32959079  0.36248797  0.57504102    -0.08440
C319        C  0.35020629  0.40812120  0.54785266     0.61940
H320        H  0.29810926  0.33563585  0.50273586     0.12640
H321        H  0.33059957  0.29904779  0.67976945     0.12650
C322        C  0.31352536  0.23488730  0.61966168     0.62180
F323        F  0.36413570  0.40780417  0.49777130    -0.22990
F324        F  0.38618699  0.43858637  0.57405731    -0.20320
F325        F  0.31934068  0.42069566  0.54269610    -0.20000
F326        F  0.30222483  0.20511375  0.58131748    -0.20050
F327        F  0.28741914  0.21336588  0.66318783    -0.20370
F328        F  0.35676093  0.24926979  0.63309664    -0.23050
C329        C  0.20722775  0.16913086  0.58259554    -0.05880
C330        C  0.20795599  0.20054495  0.54467333     0.00040
C331        C  0.17841487  0.21634912  0.55174276    -0.08530
C332        C  0.14371271  0.19237133  0.58739823    -0.05900
C333        C  0.14033352  0.15826733  0.62014860     0.00030
C334        C  0.17676190  0.15242491  0.62448889    -0.08440
C335        C  0.18945360  0.14120942  0.67755605     0.61940
H336        H  0.22966050  0.15702375  0.57975053     0.12640
H337        H  0.12013658  0.20138259  0.59347167     0.12650
C338        C  0.18150462  0.25789516  0.02530002     0.62180
F339        F  0.22223464  0.13091235  0.67347900    -0.22990
F340        F  0.15399224  0.10611870  0.70335388    -0.20320
F341        F  0.20483982  0.17794017  0.70776539    -0.20000
F342        F  0.14613820  0.24599526  0.99233290    -0.20050
F343        F  0.21950690  0.28354375  0.99696661    -0.20370
F344        F  0.18062806  0.28443884  0.06299924    -0.23050
C345        C  0.29226081  0.29310355  0.91908338    -0.05880
C346        C  0.30820109  0.27368464  0.95652892     0.00040
C347        C  0.35207548  0.28306206  0.95200585    -0.08530
C348        C  0.37968908  0.31607899  0.91485865    -0.05900
C349        C  0.36450020  0.33892781  0.88266567     0.00030
C350        C  0.31962930  0.32492941  0.88110929    -0.08440
C351        C  0.30116150  0.34391517  0.83997098     0.61940
H352        H  0.25927395  0.28653742  0.92219639     0.12640
H353        H  0.41369645  0.32511575  0.91155072     0.12650
C354        C  0.37153645  0.26152798  0.98762302     0.62180
F355        F  0.25698308  0.32848263  0.84830205    -0.22990
F356        F  0.30591032  0.33162131  0.79112396    -0.20320
F357        F  0.32351772  0.38982246  0.84029201    -0.20000
F358        F  0.40564785  0.26105788  0.96290008    -0.20050
F359        F  0.34140692  0.21782377  0.00045702    -0.20370
F360        F  0.38676091  0.28470661  0.03270507    -0.23050
C361        C  0.19217795  0.20613140  0.91802438    -0.05880
C362        C  0.21921122  0.19357614  0.94616882     0.00040
C363        C  0.22407764  0.15955996  0.92354775    -0.08530
C364        C  0.19585089  0.13463069  0.88181255    -0.05900
C365        C  0.16732813  0.14656373  0.85586278     0.00030
C366        C  0.17060847  0.18697841  0.87097798    -0.08440
C367        C  0.15332607  0.21179989  0.83707773     0.61940
H368        H  0.18894461  0.23281492  0.93147816     0.12640
H369        H  0.19681899  0.10622063  0.86831019     0.12650
C370        C  0.26189620  0.15282920  0.93822881     0.62180
F371        F  0.17058406  0.25525344  0.85166351    -0.22990
F372        F  0.10812781  0.19039033  0.84142214    -0.20320
F373        F  0.16536489  0.21396701  0.78533569    -0.20000
F374        F  0.25707551  0.11439864  0.91839793    -0.20050
F375        F  0.26557378  0.15034103  0.99193627    -0.20370
F376        F  0.29991059  0.18834621  0.91672377    -0.23050
C377        C  0.29441560  0.48507962  0.56276507    -0.05880
C378        C  0.29884828  0.52078172  0.53070952     0.00040
C379        C  0.34148334  0.05855642  0.52319340    -0.08530
C380        C  0.37797760  0.05596976  0.54213107    -0.05900
C381        C  0.37315151  0.02071344  0.57608788     0.00030
C382        C  0.32903534  0.48958628  0.59419654    -0.08440
C383        C  0.31451398  0.46274991  0.64665008     0.61940
H384        H  0.26259474  0.45488369  0.56708594     0.12640
H385        H  0.41020073  0.08404483  0.53517106     0.12650
C386        C  0.34977818  0.10274528  0.99907952     0.62180
F387        F  0.28024600  0.46478551  0.66811895    -0.22990
F388        F  0.34619447  0.47896441  0.68426638    -0.20320
F389        F  0.29930983  0.41824597  0.63975734    -0.20000
F390        F  0.37154192  0.13511524  0.53478016    -0.20050
F391        F  0.31132978  0.10221536  0.98648851    -0.20370
F392        F  0.37582655  0.11420188  0.95477806    -0.23050
C393        C  0.19898862  0.06476622  0.52781183    -0.05880
C394        C  0.22141988  0.54336512  0.54886679     0.00040
C395        C  0.22191997  0.54022133  0.60496347    -0.08530
C396        C  0.19153198  0.54627698  0.63340155    -0.05900
C397        C  0.15672906  0.04814983  0.60821827     0.00030
C398        C  0.16222415  0.06121535  0.55373886    -0.08440
C399        C  0.12919761  0.06834792  0.52087918     0.61940
H400        H  0.20199991  0.07243655  0.48627406     0.12640
H401        H  0.19006222  0.54155691  0.67560204     0.12650
C402        C  0.24527692  0.52076530  0.63540718     0.62180
F403        F  0.14186193  0.07925398  0.46895507    -0.22990
F404        F  0.12516103  0.10243453  0.53890425    -0.20320
F405        F  0.08814960  0.03042705  0.52166657    -0.20000
F406        F  0.28968080  0.54585782  0.62478177    -0.20050
F407        F  0.22687322  0.47721263  0.62175041    -0.20370
F408        F  0.24036591  0.52014352  0.68914110    -0.23050
C409        C  0.30112076  0.45187235  0.90980040    -0.05880
C410        C  0.33308843  0.98862804  0.87894684     0.00040
C411        C  0.33022295  0.02802113  0.87608369    -0.08530
C412        C  0.29917629  0.03067851  0.90791049    -0.05900
C413        C  0.27084531  0.49603769  0.94383475     0.00030
C414        C  0.26906576  0.45442544  0.94018718    -0.08440
C415        C  0.23146193  0.41125471  0.96370895     0.61940
H416        H  0.30065180  0.42058076  0.91004484     0.12640
H417        H  0.29922054  0.06167999  0.90787554     0.12650
C418        C  0.36180256  0.06848924  0.84166077     0.62180
F419        F  0.20746594  0.38427795  0.92357758    -0.22990
F420        F  0.20343761  0.41817848  0.99325079    -0.20320
F421        F  0.24713002  0.38894543  0.99496497    -0.20000
F422        F  0.35527145  0.05809903  0.78961490    -0.20050
F423        F  0.40472442  0.08156912  0.85499285    -0.20370
F424        F  0.35588032  0.10443406  0.84710898    -0.23050
C425        C  0.18663701  0.00346247  0.92554460    -0.05880
C426        C  0.18212017  0.48980523  0.97829117     0.00040
C427        C  0.13918907  0.47003582  0.00153349    -0.08530
C428        C  0.10553446  0.47276927  0.97288978    -0.05900
C429        C  0.10996116  0.48552025  0.91945068     0.00030
C430        C  0.15095961  0.99630255  0.89411921    -0.08440
C431        C  0.15896755  0.99629956  0.83507246     0.61940
H432        H  0.21906841  0.02119060  0.90865749     0.12640
H433        H  0.07364195  0.45986153  0.99069178     0.12650
C434        C  0.12695433  0.44202396  0.55354476     0.62180
F435        F  0.20314631  0.01472571  0.82280360    -0.22990
F436        F  0.14476245  0.01992177  0.80499567    -0.20320
F437        F  0.13804392  0.95322524  0.81900136    -0.20000
F438        F  0.14974779  0.46507378  0.59524221    -0.20050
F439        F  0.13521890  0.40759736  0.05002533    -0.20370
F440        F  0.08311409  0.42434884  0.56654732    -0.23050
C441        C  0.99118049  0.34310455  0.60395753    -0.05880
C442        C  0.48048615  0.37247242  0.57708286     0.00040
C443        C  0.47776297  0.37171039  0.52222359    -0.08530
C444        C  0.48089348  0.33816712  0.49769843    -0.05900
C445        C  0.49581667  0.31088138  0.52320808     0.00030
C446        C  0.00575626  0.31844710  0.57793960    -0.08440
C447        C  0.03915938  0.31222936  0.60977351     0.61940
H448        H  0.99528007  0.34492299  0.64611625     0.12640
H449        H  0.47384802  0.33528448  0.45660201     0.12650
C450        C  0.46924408  0.40394476  0.48936243     0.62180
F451        F  0.06651965  0.35031416  0.63636026    -0.22990
F452        F  0.06625237  0.30600608  0.57888761    -0.20320
F453        F  0.01812363  0.27732566  0.64671219    -0.20000
F454        F  0.50026834  0.44759371  0.49825641    -0.20050
F455        F  0.42816891  0.39632756  0.50166037    -0.20370
F456        F  0.47118177  0.39887768  0.43649781    -0.23050
C457        C  0.45013310  0.20162997  0.58763936    -0.05880
C458        C  0.49136616  0.22156917  0.56105366     0.00040
C459        C  0.02305774  0.21232189  0.58358726    -0.08530
C460        C  0.01284359  0.18259019  0.62741858    -0.05900
C461        C  0.47147768  0.16003027  0.65210968     0.00030
C462        C  0.43967291  0.17088086  0.63266268    -0.08440
C463        C  0.39545931  0.15049992  0.65965449     0.61940
H464        H  0.42545279  0.20835645  0.57128928     0.12640
H465        H  0.03781367  0.17496123  0.64063409     0.12650
C466        C  0.06774608  0.22946286  0.56014660     0.62180
F467        F  0.37019688  0.16729760  0.63810999    -0.22990
F468        F  0.40152549  0.15971273  0.71212138    -0.20320
F469        F  0.37277869  0.10484776  0.65516021    -0.20000
F470        F  0.07931102  0.26130606  0.52057236    -0.20050
F471        F  0.06812386  0.19370836  0.53973421    -0.20370
F472        F  0.09831797  0.24914666  0.59926471    -0.23050
C473        C  0.48092756  0.27964842  0.89087934    -0.05880
C474        C  0.01299378  0.29851587  0.93017069     0.00040
C475        C  0.05100751  0.34051586  0.91706395    -0.08530
C476        C  0.05282930  0.36452327  0.87041660    -0.05900
C477        C  0.01919744  0.34874094  0.83370679     0.00030
C478        C  0.98382029  0.30349978  0.84238317    -0.08540
C479        C  0.44836966  0.28017783  0.80196531     0.61940
H480        H  0.45232799  0.24711781  0.89947533     0.12640
H481        H  0.07915180  0.39840393  0.86574791     0.12650
C482        C  0.08557397  0.36604874  0.95637946     0.62180
F483        F  0.42638600  0.23429692  0.81104266    -0.22990
F484        F  0.96699985  0.28966850  0.75239643    -0.20320
F485        F  0.41790151  0.29386836  0.80383070    -0.20000
F486        F  0.09400485  0.33991245  0.99091211    -0.20050
F487        F  0.06911449  0.38666296  0.48366811    -0.20370
F488        F  0.12505776  0.39716253  0.93256323    -0.23050
C489        C  0.48095453  0.16052475  0.98628962    -0.05880
C490        C  0.99979250  0.20549871  0.96608321     0.00040
C491        C  0.02129860  0.21400719  0.91577988    -0.08530
C492        C  0.01147428  0.17739811  0.88609918    -0.05900
C493        C  0.99987672  0.13562485  0.91046296     0.00030
C494        C  0.48812822  0.12887719  0.96355350    -0.08440
C495        C  0.48739363  0.09167548  0.99770589     0.61940
H496        H  0.46408956  0.15058890  0.02326004     0.12640
H497        H  0.02172756  0.18430133  0.84531862     0.12650
C498        C  0.06257703  0.25574537  0.89494007     0.62180
F499        F  0.48696760  0.09931027  0.05013988    -0.22990
F500        F  0.52510719  0.08997438  0.98918188    -0.20320
F501        F  0.45074467  0.05123603  0.98672478    -0.20000
F502        F  0.08348690  0.28637866  0.93125311    -0.20050
F503        F  0.05325586  0.27436210  0.85112222    -0.20370
F504        F  0.09329383  0.24507971  0.88032980    -0.23050
C505        C  0.49744512  0.73851748  0.00315343     0.00460
C506        C  0.00286509  0.78027286  0.48737005     0.00460
C507        C  0.22360445  0.01117922  0.51064763     0.00460
C508        C  0.26170541  0.01090822  0.49528599     0.00460
C509        C  0.23913097  0.71552495  0.49926486     0.00460
C510        C  0.28119866  0.75214462  0.50477423     0.00460
O511        O  0.01906614  0.61756689  0.33282177    -0.80230
O512        O  0.40027670  0.87345768  0.30443483    -0.81790
O513        O  0.40025662  0.48490590  0.37407555    -0.78810
O514        O  0.04176945  0.49190654  0.40305670    -0.77190
O515        O  0.06952489  0.46634005  0.34456162    -0.78980
O516        O  0.36649541  0.48851002  0.29796963    -0.79910
O517        O  0.41893013  0.91468249  0.37677660    -0.81240
O518        O  0.48935527  0.56201216  0.39627820    -0.81530
Eu519      Eu  0.47433996  0.49250581  0.35427359     2.39200
O520        O  0.49718842  0.95080209  0.30789714    -0.89040
O521        O  0.46237937  0.54086854  0.29521696    -0.92640
C522        C  0.00312873  0.60263501  0.37875185     1.02050
C523        C  0.39658057  0.87835183  0.35266210     1.01870
C524        C  0.36841741  0.48608667  0.34858085     1.01810
C525        C  0.07079435  0.48088463  0.38869758     0.99670
H526        H  0.49277380  0.00499267  0.24846178     0.29420
O527        O  0.46487688  0.98458777  0.26363588    -1.01430
H528        H  0.05878855  0.55812438  0.34917839     0.29450
O529        O  0.04258174  0.54343777  0.31861382    -1.03970
O530        O  0.46094296  0.88868944  0.15591771    -0.81190
O531        O  0.09046912  0.63364295  0.19107701    -0.80730
O532        O  0.37275035  0.92903043  0.17028273    -0.79170
O533        O  0.05150369  0.92448667  0.29278358    -0.82510
O534        O  0.12591341  0.57594450  0.31030170    -0.80370
O535        O  0.43246455  0.58342617  0.19375136    -0.79010
O536        O  0.44178871  0.51688851  0.09256127    -0.80540
O537        O  0.08232609  0.53171979  0.11613117    -0.82460
O538        O  0.41350400  0.54329878  0.14943080    -0.79200
O539        O  0.11515709  0.52136104  0.18925001    -0.81870
O540        O  0.37768987  0.87264966  0.20796785    -0.77610
O541        O  0.00103970  0.63484338  0.22095321    -0.77640
O542        O  0.10584835  0.62787085  0.29833555    -0.77290
O543        O  0.48171921  0.87222946  0.27294916    -0.80780
O544        O  0.99186641  0.94562127  0.09400373    -0.80210
O545        O  0.07014433  0.59197480  0.11818734    -0.78530
Eu546      Eu  0.45209414  0.91661490  0.23609880     2.39770
Eu547      Eu  0.03320755  0.59076797  0.25649823     2.39570
Eu548      Eu  0.41702342  0.50379048  0.22304733     2.38400
Eu549      Eu  0.06670405  0.50349040  0.26785070     2.39880
Eu550      Eu  0.00809715  0.51418915  0.13904550     2.39790
O551        O  0.05598225  0.55053376  0.20906934    -0.92950
O552        O  0.43855924  0.96166839  0.17573618    -0.91840
C553        C  0.47626495  0.90429557  0.10973029     1.02220
C554        C  0.09723924  0.62635489  0.14443944     1.00940
C555        C  0.36252380  0.88706717  0.17144076     1.00330
C556        C  0.01822190  0.88339663  0.29546098     1.02340
C557        C  0.13214506  0.61549188  0.31762161     1.01260
C558        C  0.46593051  0.62448379  0.19427293     1.00110
C559        C  0.41249070  0.52758457  0.10622805     1.00170
C560        C  0.11538445  0.53279913  0.13976888     1.02780
H561        H  0.99097464  0.57770691  0.15821623     0.30150
O562        O  0.98689745  0.55568393  0.18540782    -1.05110
H563        H  0.03387160  0.95016060  0.18029262     0.32200
O564        O  0.02074468  0.96490278  0.19690873    -1.07670
C565        C  0.30558592  0.82705903  0.04125325    -0.05880
C566        C  0.29647368  0.78299880  0.05198112     0.00040
C567        C  0.30930589  0.77481410  0.10293222    -0.08530
C568        C  0.32423766  0.80806257  0.14073709    -0.05900
C569        C  0.33660577  0.85323957  0.12860891     0.00030
C570        C  0.32958912  0.86248745  0.07504771    -0.08440
C571        C  0.35021413  0.90812069  0.04785753     0.61940
H572        H  0.29810391  0.83563538  0.00274393     0.12640
H573        H  0.33058575  0.79904549  0.17978129     0.12650
C574        C  0.31349766  0.73487735  0.11967783     0.62180
F575        F  0.36413412  0.90779641  0.99777340    -0.22990
F576        F  0.38620301  0.93857981  0.07405743    -0.20320
F577        F  0.31935831  0.92070840  0.04270681    -0.20000
F578        F  0.30219062  0.70510107  0.08133567    -0.20050
F579        F  0.28739034  0.71336135  0.16320474    -0.20370
F580        F  0.35673176  0.74925195  0.13311213    -0.23050
C581        C  0.20720158  0.66910944  0.08260058    -0.05880
C582        C  0.20793829  0.70053587  0.04469108     0.00040
C583        C  0.17840824  0.71635186  0.05177696    -0.08530
C584        C  0.14371053  0.69238102  0.08744252    -0.05900
C585        C  0.14031527  0.65825548  0.12016714     0.00030
C586        C  0.17673673  0.65240108  0.12449501    -0.08440
C587        C  0.18943227  0.64118518  0.17755936     0.61940
H588        H  0.22962849  0.65699577  0.07974603     0.12640
H589        H  0.12015248  0.70141362  0.09354327     0.12650
C590        C  0.18148318  0.75787273  0.52527505     0.62180
F591        F  0.22221401  0.63088961  0.17347684    -0.22990
F592        F  0.15397251  0.60609437  0.20335923    -0.20320
F593        F  0.20482009  0.67791532  0.20776999    -0.20000
F594        F  0.14612211  0.74597140  0.49229812    -0.20050
F595        F  0.21949159  0.78353068  0.49695500    -0.20370
F596        F  0.18059352  0.78440860  0.56297507    -0.23050
C597        C  0.29226110  0.79310450  0.41907776    -0.05880
C598        C  0.30819898  0.77368154  0.45652088     0.00040
C599        C  0.35207316  0.78305772  0.45199714    -0.08530
C600        C  0.37968872  0.81607771  0.41485358    -0.05900
C601        C  0.36450187  0.83892960  0.38266292     0.00030
C602        C  0.31963107  0.82493187  0.38110549    -0.08440
C603        C  0.30116449  0.84391867  0.33996696     0.61940
H604        H  0.25927491  0.78653991  0.42219122     0.12640
H605        H  0.41369608  0.82511413  0.41154619     0.12650
C606        C  0.37153200  0.76151874  0.48760957     0.62180
F607        F  0.25698653  0.82848838  0.34829853    -0.22990
F608        F  0.30591195  0.83162329  0.29112029    -0.20320
F609        F  0.32352282  0.88982601  0.34028667    -0.20000
F610        F  0.40564687  0.76105472  0.46288728    -0.20050
F611        F  0.34140230  0.71781218  0.50043202    -0.20370
F612        F  0.38675160  0.78468932  0.53269763    -0.23050
C613        C  0.19217584  0.70613079  0.41800741    -0.05880
C614        C  0.21920500  0.69357192  0.44615631     0.00040
C615        C  0.22406246  0.65954831  0.42354128    -0.08530
C616        C  0.19582836  0.63461367  0.38181345    -0.05900
C617        C  0.16730557  0.64654711  0.35586389     0.00030
C618        C  0.17059645  0.68696919  0.37096824    -0.08440
C619        C  0.15331591  0.71178966  0.33706210     0.61940
H620        H  0.18895170  0.73282216  0.43145169     0.12640
H621        H  0.19679053  0.60619875  0.36831699     0.12650
C622        C  0.26188198  0.65281812  0.43821795     0.62180
F623        F  0.17058266  0.75524794  0.35163471    -0.22990
F624        F  0.10811847  0.69038804  0.34141345    -0.20320
F625        F  0.16534680  0.71394302  0.28531968    -0.20000
F626        F  0.25705939  0.61438626  0.41838863    -0.20050
F627        F  0.26556453  0.65033376  0.49192504    -0.20370
F628        F  0.29989446  0.68833424  0.41670760    -0.23050
C629        C  0.29442388  0.98508623  0.06277272    -0.05880
C630        C  0.29885761  0.02078622  0.03071253     0.00040
C631        C  0.34148016  0.55855776  0.02319527    -0.08530
C632        C  0.37797527  0.55597071  0.04212934    -0.05900
C633        C  0.37315075  0.52071799  0.07609162     0.00030
C634        C  0.32904408  0.98959359  0.09420314    -0.08440
C635        C  0.31452371  0.96275918  0.14665781     0.61940
H636        H  0.26260249  0.95489141  0.06709683     0.12640
H637        H  0.41019856  0.58404336  0.03516171     0.12650
C638        C  0.34976545  0.60274511  0.49909000     0.62180
F639        F  0.28026018  0.96480066  0.16812992    -0.22990
F640        F  0.34620645  0.97897151  0.18427122    -0.20320
F641        F  0.29931409  0.91825391  0.13976599    -0.20000
F642        F  0.37154500  0.63511898  0.03477136    -0.20050
F643        F  0.31131637  0.60221217  0.48649437    -0.20370
F644        F  0.37581955  0.61421005  0.45479241    -0.23050
C645        C  0.19896938  0.56475532  0.02782290    -0.05880
C646        C  0.22142796  0.04336928  0.04886869     0.00040
C647        C  0.22192692  0.04022609  0.10496532    -0.08530
C648        C  0.19153448  0.04627603  0.13340139    -0.05900
C649        C  0.15670136  0.54812607  0.10822597     0.00030
C650        C  0.16220092  0.56119813  0.05374826    -0.08440
C651        C  0.12917561  0.56833278  0.02088863     0.61940
H652        H  0.20198282  0.57242906  0.98628570     0.12640
H653        H  0.19006235  0.04155365  0.17560168     0.12650
C654        C  0.24528749  0.02077535  0.13541114     0.62180
F655        F  0.14184411  0.57924616  0.96896629    -0.22990
F656        F  0.12513478  0.60241534  0.03891940    -0.20320
F657        F  0.08812875  0.53041054  0.02166903    -0.20000
F658        F  0.28969039  0.04586816  0.12478044    -0.20050
F659        F  0.22688396  0.97722083  0.12176195    -0.20370
F660        F  0.24038076  0.02016044  0.18914493    -0.23050
C661        C  0.30112487  0.95187350  0.40979040    -0.05880
C662        C  0.33309117  0.48863542  0.37894546     0.00040
C663        C  0.33022626  0.52802896  0.37608625    -0.08530
C664        C  0.29917558  0.53068334  0.40790958    -0.05900
C665        C  0.27085061  0.99603965  0.44382406     0.00030
C666        C  0.26906831  0.95442647  0.44017380    -0.08440
C667        C  0.23145923  0.91125519  0.46368702     0.61940
H668        H  0.30065333  0.92058077  0.41003238     0.12640
H669        H  0.29921951  0.56168458  0.40787674     0.12650
C670        C  0.36181037  0.56850035  0.34167095     0.62180
F671        F  0.20746307  0.88428688  0.42354964    -0.22990
F672        F  0.20343708  0.91817976  0.49323206    -0.20320
F673        F  0.24712009  0.88893621  0.49493740    -0.20000
F674        F  0.35528608  0.55811593  0.28962310    -0.20050
F675        F  0.40473030  0.58157801  0.35501037    -0.20370
F676        F  0.35588774  0.60444468  0.34712127    -0.23050
C677        C  0.18662339  0.50345705  0.42554090    -0.05880
C678        C  0.18212599  0.98980998  0.47828419     0.00040
C679        C  0.13919613  0.97004435  0.50152911    -0.08530
C680        C  0.10554126  0.97277770  0.47288625    -0.05900
C681        C  0.10996571  0.98552520  0.41944632     0.00030
C682        C  0.15094392  0.49629715  0.39411784    -0.08440
C683        C  0.15894914  0.49629191  0.33507055     0.61940
H684        H  0.21905409  0.52118054  0.40865104     0.12640
H685        H  0.07364995  0.95987272  0.49069039     0.12650
C686        C  0.12696287  0.94202533  0.05354556     0.62180
F687        F  0.20312797  0.51472325  0.32279835    -0.22990
F688        F  0.14473775  0.51990777  0.30499250    -0.20320
F689        F  0.13802977  0.45321677  0.31900281    -0.20000
F690        F  0.14976075  0.96507376  0.09524158    -0.20050
F691        F  0.13523091  0.90761117  0.55002816    -0.20370
F692        F  0.08312404  0.92435687  0.06655070    -0.23050
C693        C  0.99118629  0.84310806  0.10395367    -0.05880
C694        C  0.48048824  0.87247409  0.07708112     0.00040
C695        C  0.47776419  0.87171123  0.02222204    -0.08530
C696        C  0.48089104  0.83816562  0.99769779    -0.05900
C697        C  0.49581487  0.81088055  0.02320743     0.00030
C698        C  0.00575690  0.81844690  0.07793437    -0.08440
C699        C  0.03915842  0.81222440  0.10976432     0.61940
H700        H  0.99528763  0.84492651  0.14611218     0.12640
H701        H  0.47384309  0.83528109  0.95660195     0.12650
C702        C  0.46925025  0.90394862  0.98936035     0.62180
F703        F  0.06652509  0.85030914  0.13634767    -0.22990
F704        F  0.06624464  0.80599435  0.07887429    -0.20320
F705        F  0.01812153  0.77732261  0.14670506    -0.20000
F706        F  0.50027911  0.94759610  0.99825404    -0.20050
F707        F  0.42817761  0.89633791  0.00165874    -0.20370
F708        F  0.47118604  0.89887981  0.93649578    -0.23050
C709        C  0.45013173  0.70163137  0.08763998    -0.05880
C710        C  0.49136432  0.72157022  0.06105366     0.00040
C711        C  0.02304209  0.71230891  0.08358926    -0.08530
C712        C  0.01282436  0.68257756  0.12742239    -0.05900
C713        C  0.47147906  0.66003544  0.15211133     0.00030
C714        C  0.43967263  0.67088324  0.13266361    -0.08440
C715        C  0.39545790  0.65049927  0.15965352     0.61940
H716        H  0.42545073  0.70835661  0.07128950     0.12640
H717        H  0.03779401  0.67494966  0.14064313     0.12650
C718        C  0.06773408  0.72945030  0.06015853     0.62180
F719        F  0.37019431  0.66729537  0.13810845    -0.22990
F720        F  0.40152171  0.65971046  0.21212092    -0.20320
F721        F  0.37277955  0.60484732  0.15515715    -0.20000
F722        F  0.07929468  0.76127574  0.02056320    -0.20050
F723        F  0.06812575  0.69369115  0.03978096    -0.20370
F724        F  0.09830101  0.74915683  0.09927550    -0.23050
C725        C  0.48093010  0.77964734  0.39087702    -0.05880
C726        C  0.01299686  0.79851817  0.43017220     0.00040
C727        C  0.05101035  0.84051879  0.41706627    -0.08530
C728        C  0.05283226  0.86452634  0.37041887    -0.05900
C729        C  0.01920120  0.84874355  0.33370790     0.00030
C730        C  0.98382488  0.80350188  0.34238348    -0.08540
C731        C  0.44837637  0.78017747  0.30196047     0.61940
H732        H  0.45233166  0.74711531  0.39947021     0.12640
H733        H  0.07915426  0.89840743  0.36575108     0.12650
C734        C  0.08557651  0.86605267  0.45638211     0.62180
F735        F  0.42639434  0.73429642  0.31103605    -0.22990
F736        F  0.96700517  0.78967121  0.25239660    -0.20320
F737        F  0.41790631  0.79386568  0.30382372    -0.20000
F738        F  0.09400405  0.83991723  0.49092035    -0.20050
F739        F  0.06912245  0.88665810  0.98367958    -0.20370
F740        F  0.12506156  0.89716246  0.43256526    -0.23050
C741        C  0.48094270  0.66052512  0.48627798    -0.05880
C742        C  0.99978188  0.70549595  0.46608521     0.00040
C743        C  0.02129709  0.71400370  0.41578824    -0.08530
C744        C  0.01147287  0.67739463  0.38610714    -0.05900
C745        C  0.99985977  0.63561659  0.41046934     0.00030
C746        C  0.48811980  0.62887855  0.46354530    -0.08440
C747        C  0.48737669  0.59167337  0.49769916     0.61940
H748        H  0.46406942  0.65058784  0.52324290     0.12640
H749        H  0.02173502  0.68429885  0.34532970     0.12650
C750        C  0.06257866  0.75574101  0.39495359     0.62180
F751        F  0.48694591  0.59930762  0.55013240    -0.22990
F752        F  0.52508881  0.58996751  0.48918368    -0.20320
F753        F  0.45072647  0.55123653  0.48671268    -0.20000
F754        F  0.08348239  0.78637734  0.43126462    -0.20050
F755        F  0.05326378  0.77435553  0.35112833    -0.20370
F756        F  0.09329809  0.74507379  0.38035869    -0.23050
C757        C  0.49744566  0.73851835  0.50314793     0.00460
C758        C  0.00285944  0.78026533  0.98737835     0.00460
C759        C  0.22360541  0.01117919  0.01064954     0.00460
C760        C  0.26170619  0.01090742  0.99528863     0.00460
C761        C  0.23912207  0.71552344  0.99928857     0.00460
C762        C  0.28118854  0.75214577  0.00479582     0.00460
O763        O  0.01908239  0.61758217  0.83281412    -0.80230
O764        O  0.40026577  0.87344686  0.80444231    -0.81790
O765        O  0.40025105  0.48490437  0.87407836    -0.78810
O766        O  0.04178891  0.49192037  0.90304703    -0.77190
O767        O  0.06954939  0.46635946  0.84455126    -0.78980
O768        O  0.36649142  0.48851050  0.79797199    -0.79910
O769        O  0.41892214  0.91467349  0.87678289    -0.81240
O770        O  0.48934875  0.56201135  0.89627887    -0.81530
Eu771      Eu  0.47433389  0.49250563  0.85427644     2.39200
O772        O  0.49717836  0.95079163  0.80789906    -0.89040
O773        O  0.46237620  0.54086942  0.79521795    -0.92640
C774        C  0.00314981  0.60264836  0.87874606     1.02050
C775        C  0.39657102  0.87834212  0.85267005     1.01870
C776        C  0.36841255  0.48608590  0.84858340     1.01810
C777        C  0.07081250  0.48089667  0.88869034     0.99670
H778        H  0.49276305  0.00498136  0.74846393     0.29420
O779        O  0.46486619  0.98457673  0.76363834    -1.01430
H780        H  0.05881416  0.55814714  0.84917443     0.29450
O781        O  0.04261656  0.54346724  0.81860900    -1.03970
O782        O  0.46093287  0.88867951  0.65591881    -0.81190
O783        O  0.09049087  0.63365516  0.69106140    -0.80730
O784        O  0.37274561  0.92902223  0.67027647    -0.79170
O785        O  0.05150303  0.92448152  0.79278943    -0.82510
O786        O  0.12593555  0.57596631  0.81029614    -0.80370
O787        O  0.43246266  0.58342655  0.69375032    -0.79010
O788        O  0.44178623  0.51688712  0.59256366    -0.80540
O789        O  0.08234990  0.53174371  0.61612620    -0.82460
O790        O  0.41349784  0.54329610  0.64943067    -0.79200
O791        O  0.11518403  0.52138687  0.68924313    -0.81870
O792        O  0.37767898  0.87263944  0.70796515    -0.77610
O793        O  0.00106340  0.63486530  0.72094528    -0.77640
O794        O  0.10587391  0.62789509  0.79832431    -0.77290
O795        O  0.48170918  0.87221918  0.77295142    -0.80780
O796        O  0.99186360  0.94561844  0.59400320    -0.80210
O797        O  0.07015592  0.59199221  0.61816609    -0.78530
Eu798      Eu  0.45208244  0.91660315  0.73610181     2.39770
Eu799      Eu  0.03323231  0.59079132  0.75648909     2.39570
Eu800      Eu  0.41701949  0.50379047  0.72304881     2.38400
Eu801      Eu  0.06673006  0.50351127  0.76784347     2.39880
Eu802      Eu  0.00811751  0.51420681  0.63903195     2.39790
O803        O  0.05597469  0.55053142  0.70907606    -0.92950
O804        O  0.43855056  0.96165847  0.67573841    -0.91840
C805        C  0.47625526  0.90428643  0.60973142     1.02220
C806        C  0.09725468  0.62636777  0.64442106     1.00940
C807        C  0.36251818  0.88705865  0.67143351     1.00330
C808        C  0.01822086  0.88339164  0.79546720     1.02340
C809        C  0.13216708  0.61551368  0.81761630     1.01260
C810        C  0.46592980  0.62448374  0.69426910     1.00110
C811        C  0.41248711  0.52758279  0.60622792     1.00170
C812        C  0.11540922  0.53282456  0.63976245     1.02780
H813        H  0.99100126  0.57773187  0.65819877     0.30150
O814        O  0.98692793  0.55571518  0.68538596    -1.05110
H815        H  0.03387179  0.95015627  0.68029400     0.32200
O816        O  0.02074532  0.96489846  0.69691112    -1.07670
C817        C  0.30558880  0.82705477  0.54123800    -0.05880
C818        C  0.29648305  0.78299629  0.55196139     0.00040
C819        C  0.30931916  0.77481220  0.60291059    -0.08530
C820        C  0.32424602  0.80805764  0.64071876    -0.05900
C821        C  0.33660676  0.85323334  0.62859597     0.00030
C822        C  0.32958788  0.86248222  0.57503556    -0.08440
C823        C  0.35020539  0.90811614  0.54784848     0.61940
H824        H  0.29810530  0.83563140  0.50272969     0.12640
H825        H  0.33059607  0.79903960  0.67976142     0.12650
C826        C  0.31351997  0.73487989  0.61965142     0.62180
F827        F  0.36413309  0.90779869  0.49776628    -0.22990
F828        F  0.38618766  0.93857960  0.57405297    -0.20320
F829        F  0.31934184  0.92069349  0.54269412    -0.20000
F830        F  0.30221834  0.70510679  0.58130637    -0.20050
F831        F  0.28741453  0.71335824  0.66317799    -0.20370
F832        F  0.35675562  0.74926162  0.63308513    -0.23050
C833        C  0.20722078  0.66912899  0.58259099    -0.05880
C834        C  0.20794868  0.70054188  0.54466716     0.00040
C835        C  0.17840861  0.71634732  0.55173622    -0.08530
C836        C  0.14370690  0.69237122  0.58739297    -0.05900
C837        C  0.14032742  0.65826754  0.62014449     0.00030
C838        C  0.17675543  0.65242450  0.62448491    -0.08440
C839        C  0.18944777  0.64121044  0.67755252     0.61940
H840        H  0.22965299  0.65702121  0.57974648     0.12640
H841        H  0.12013127  0.70138334  0.59346610     0.12650
C842        C  0.18148461  0.75787828  0.02531618     0.62180
F843        F  0.22222674  0.63091045  0.67347570    -0.22990
F844        F  0.15398620  0.60612215  0.70335316    -0.20320
F845        F  0.20483715  0.67794314  0.70775913    -0.20000
F846        F  0.14612031  0.74597738  0.99234530    -0.20050
F847        F  0.21948878  0.78353097  0.99698698    -0.20370
F848        F  0.18060265  0.78441841  0.06301623    -0.23050
C849        C  0.29225147  0.79310230  0.91909546    -0.05880
C850        C  0.30818925  0.77368128  0.95654164     0.00040
C851        C  0.35206354  0.78305719  0.95201940    -0.08530
C852        C  0.37967863  0.81607297  0.91487142    -0.05900
C853        C  0.36449171  0.83892130  0.88267425     0.00030
C854        C  0.31962106  0.82492508  0.88111844    -0.08440
C855        C  0.30115445  0.84390915  0.83997658     0.61940
H856        H  0.25926568  0.78653961  0.92220975     0.12640
H857        H  0.41368583  0.82510882  0.91156538     0.12650
C858        C  0.37152330  0.76152247  0.98763779     0.62180
F859        F  0.25697714  0.82848119  0.84830877    -0.22990
F860        F  0.30589994  0.83160856  0.79113222    -0.20320
F861        F  0.32351402  0.88981680  0.84029023    -0.20000
F862        F  0.40563459  0.76105095  0.96291594    -0.20050
F863        F  0.34139244  0.71781863  0.00047219    -0.20370
F864        F  0.38674813  0.78470169  0.03271951    -0.23050
C865        C  0.19216978  0.70613066  0.91803191    -0.05880
C866        C  0.21919898  0.69357160  0.94617981     0.00040
C867        C  0.22406318  0.65955353  0.92356050    -0.08530
C868        C  0.19583751  0.63462591  0.88182372    -0.05900
C869        C  0.16731910  0.64656291  0.85586975     0.00030
C870        C  0.17060191  0.68697896  0.87098389    -0.08440
C871        C  0.15332564  0.71180398  0.83707932     0.61940
H872        H  0.18893833  0.73281587  0.93148418     0.12640
H873        H  0.19680402  0.60621467  0.86832254     0.12650
C874        C  0.26188056  0.65282114  0.93824313     0.62180
F875        F  0.17058589  0.75525779  0.85166507    -0.22990
F876        F  0.10812714  0.69039855  0.84141710    -0.20320
F877        F  0.16536858  0.71397035  0.78533924    -0.20000
F878        F  0.25705905  0.61439023  0.91841239    -0.20050
F879        F  0.26555726  0.65033265  0.99195070    -0.20370
F880        F  0.29989596  0.68833760  0.91673921    -0.23050
C881        C  0.29441982  0.98508012  0.56276554    -0.05880
C882        C  0.29885442  0.02078358  0.53071156     0.00040
C883        C  0.34147681  0.55855545  0.52319115    -0.08530
C884        C  0.37797214  0.55597082  0.54212989    -0.05900
C885        C  0.37314809  0.52071591  0.57608790     0.00030
C886        C  0.32903860  0.98958452  0.59419636    -0.08440
C887        C  0.31451606  0.96274669  0.64664894     0.61940
H888        H  0.26259833  0.95488485  0.56708557     0.12640
H889        H  0.41019454  0.58404650  0.53516958     0.12650
C890        C  0.34977015  0.60274672  0.99909040     0.62180
F891        F  0.28024892  0.96478321  0.66811863    -0.22990
F892        F  0.34619613  0.97895900  0.68426566    -0.20320
F893        F  0.29931023  0.91824267  0.63975430    -0.20000
F894        F  0.37153356  0.63511446  0.53477616    -0.20050
F895        F  0.31132128  0.60221628  0.98650067    -0.20370
F896        F  0.37581868  0.61420559  0.95478871    -0.23050
C897        C  0.19898061  0.56476327  0.52780852    -0.05880
C898        C  0.22142729  0.04336750  0.54886995     0.00040
C899        C  0.22192610  0.04022231  0.60496662    -0.08530
C900        C  0.19153709  0.04627672  0.63340420    -0.05900
C901        C  0.15672365  0.54815013  0.60821652     0.00030
C902        C  0.16221709  0.56121375  0.55373662    -0.08440
C903        C  0.12918985  0.56834607  0.52087776     0.61940
H904        H  0.20199064  0.57243210  0.48627041     0.12640
H905        H  0.19006635  0.04155559  0.67560461     0.12650
C906        C  0.24528204  0.02076520  0.63541022     0.62180
F907        F  0.14185164  0.57924834  0.46895288    -0.22990
F908        F  0.12515595  0.60243496  0.53890048    -0.20320
F909        F  0.08814083  0.53042657  0.52166836    -0.20000
F910        F  0.28968595  0.04585681  0.62478509    -0.20050
F911        F  0.22687747  0.97721258  0.62175287    -0.20370
F912        F  0.24037088  0.02014321  0.68914414    -0.23050
C913        C  0.30112199  0.95186666  0.90979858    -0.05880
C914        C  0.33308687  0.48863457  0.87894909     0.00040
C915        C  0.33022086  0.52802740  0.87608939    -0.08530
C916        C  0.29917397  0.53068340  0.90791803    -0.05900
C917        C  0.27084809  0.99603415  0.94382847     0.00030
C918        C  0.26906731  0.95442125  0.94018355    -0.08440
C919        C  0.23146222  0.91125159  0.96370566     0.61940
H920        H  0.30065261  0.92057480  0.91004494     0.12640
H921        H  0.29921796  0.56168466  0.90788488     0.12650
C922        C  0.36180019  0.56849665  0.84166792     0.62180
F923        F  0.20746499  0.88427537  0.92357447    -0.22990
F924        F  0.20343959  0.91817760  0.99324781    -0.20320
F925        F  0.24712847  0.88894052  0.99496151    -0.20000
F926        F  0.35526943  0.55810794  0.78962156    -0.20050
F927        F  0.40472213  0.58157668  0.85499980    -0.20370
F928        F  0.35587727  0.60444080  0.84711816    -0.23050
C929        C  0.18663394  0.50346476  0.92554991    -0.05880
C930        C  0.18212633  0.98980744  0.97828729     0.00040
C931        C  0.13919692  0.97004210  0.00153326    -0.08530
C932        C  0.10554166  0.97277547  0.97289122    -0.05900
C933        C  0.10996481  0.98552126  0.91945070     0.00030
C934        C  0.15095808  0.49630485  0.89412197    -0.08440
C935        C  0.15897051  0.49630743  0.83507526     0.61940
H936        H  0.21906653  0.52119666  0.90866616     0.12640
H937        H  0.07365101  0.95987164  0.99069664     0.12650
C938        C  0.12696097  0.94202674  0.55354083     0.62180
F939        F  0.20314953  0.51472874  0.82281127    -0.22990
F940        F  0.14477302  0.51993767  0.80500131    -0.20320
F941        F  0.13804321  0.45323560  0.81899604    -0.20000
F942        F  0.14975524  0.96507531  0.59523850    -0.20050
F943        F  0.13522961  0.90760777  0.05003184    -0.20370
F944        F  0.08312107  0.92435540  0.56654261    -0.23050
C945        C  0.99118355  0.84310597  0.60394904    -0.05880
C946        C  0.48047960  0.87246642  0.57708060     0.00040
C947        C  0.47776128  0.87170874  0.52222078    -0.08530
C948        C  0.48089248  0.83816661  0.49769406    -0.05900
C949        C  0.49581500  0.81088037  0.52320338     0.00030
C950        C  0.00576010  0.81845078  0.57792826    -0.08440
C951        C  0.03916513  0.81223397  0.60975883     0.61940
H952        H  0.99528201  0.84492110  0.64610809     0.12640
H953        H  0.47384925  0.83528605  0.45659694     0.12650
C954        C  0.46924933  0.90394830  0.48936043     0.62180
F955        F  0.06652687  0.85031959  0.63634339    -0.22990
F956        F  0.06625598  0.80600983  0.57886982    -0.20320
F957        F  0.01813176  0.77733126  0.64669924    -0.20000
F958        F  0.50027855  0.94759501  0.49825724    -0.20050
F959        F  0.42817643  0.89633791  0.50165714    -0.20370
F960        F  0.47118705  0.89888218  0.43649551    -0.23050
C961        C  0.45013091  0.70163134  0.58763496    -0.05880
C962        C  0.49136337  0.72156983  0.56104812     0.00040
C963        C  0.02305286  0.71232283  0.58357619    -0.08530
C964        C  0.01283931  0.68259181  0.62740861    -0.05900
C965        C  0.47147791  0.66003433  0.65210577     0.00030
C966        C  0.43967237  0.67088420  0.63265978    -0.08440
C967        C  0.39545939  0.65050385  0.65965310     0.61940
H968        H  0.42544997  0.70835687  0.57128488     0.12640
H969        H  0.03780918  0.67496232  0.64062349     0.12650
C970        C  0.06773995  0.72946095  0.56013349     0.62180
F971        F  0.37019661  0.66730125  0.63810900    -0.22990
F972        F  0.40152683  0.65971772  0.71211965    -0.20320
F973        F  0.37277835  0.60485151  0.65515998    -0.20000
F974        F  0.07930322  0.76129992  0.52055464    -0.20050
F975        F  0.06811667  0.69370395  0.53972677    -0.20370
F976        F  0.09831360  0.74914882  0.59924882    -0.23050
C977        C  0.48092152  0.77964349  0.89088615    -0.05880
C978        C  0.01299251  0.79851190  0.93018081     0.00040
C979        C  0.05100515  0.84051378  0.91707720    -0.08530
C980        C  0.05282790  0.86452224  0.87043013    -0.05900
C981        C  0.01919883  0.84873892  0.83371640     0.00030
C982        C  0.98382294  0.80349675  0.84239044    -0.08540
C983        C  0.44836400  0.78016934  0.80197124     0.61940
H984        H  0.45232186  0.74711319  0.89948349     0.12640
H985        H  0.07914949  0.89840379  0.86576414     0.12650
C986        C  0.08557013  0.86604708  0.95639446     0.62180
F987        F  0.42638121  0.73428864  0.81105051    -0.22990
F988        F  0.96700660  0.78966655  0.75240280    -0.20320
F989        F  0.41789509  0.79385902  0.80383478    -0.20000
F990        F  0.09399407  0.83991071  0.99093590    -0.20050
F991        F  0.06912771  0.88666066  0.48367067    -0.20370
F992        F  0.12505678  0.89715419  0.93257860    -0.23050
C993        C  0.48094754  0.66052480  0.98628708    -0.05880
C994        C  0.99978637  0.70549396  0.96609194     0.00040
C995        C  0.02130250  0.71400694  0.91579469    -0.08530
C996        C  0.01148181  0.67740120  0.88610984    -0.05900
C997        C  0.99987493  0.63562385  0.91046840     0.00030
C998        C  0.48812277  0.62887867  0.96355040    -0.08440
C999        C  0.48738566  0.59167530  0.99770204     0.61940
H1000       H  0.46407979  0.65058760  0.02325570     0.12640
H1001       H  0.02174370  0.68430897  0.84533230     0.12650
C1002       C  0.06258418  0.75574634  0.89496425     0.62180
F1003       F  0.48695861  0.59930921  0.05013612    -0.22990
F1004       F  0.52509861  0.58997267  0.98917966    -0.20320
F1005       F  0.45073602  0.55123691  0.98671908    -0.20000
F1006       F  0.08348617  0.78637939  0.93127916    -0.20050
F1007       F  0.05327040  0.77436369  0.85114077    -0.20370
F1008       F  0.09330472  0.74508145  0.88036741    -0.23050
C1009       C  0.99744868  0.23851658  0.00314823     0.00460
C1010       C  0.50286530  0.28027360  0.48737433     0.00460
C1011       C  0.72359412  0.51117540  0.51066930     0.00460
C1012       C  0.76169222  0.51090029  0.49530849     0.00460
C1013       C  0.73912719  0.21551620  0.49929492     0.00460
C1014       C  0.78119618  0.25213128  0.50480807     0.00460
O1015       O  0.51908885  0.11758771  0.33281243    -0.80230
O1016       O  0.90026712  0.37341301  0.30446500    -0.81790
O1017       O  0.90025999  0.98490697  0.37407637    -0.78810
O1018       O  0.54179429  0.99192528  0.40304573    -0.77190
O1019       O  0.56955127  0.96636061  0.34455085    -0.78980
O1020       O  0.86649896  0.98851201  0.29797053    -0.79910
O1021       O  0.91890485  0.41465004  0.37679782    -0.81240
O1022       O  0.98935927  0.06201212  0.39628192    -0.81530
Eu1023     Eu  0.97434266  0.99250660  0.35427540     2.39200
O1024       O  0.99715917  0.45077834  0.30790815    -0.89040
O1025       O  0.96238176  0.04086938  0.29521850    -0.92640
C1026       C  0.50315539  0.10265409  0.37874383     1.02050
C1027       C  0.89656772  0.37831446  0.35268869     1.01870
C1028       C  0.86842107  0.98608816  0.34858181     1.01810
C1029       C  0.57081714  0.98090066  0.38868883     0.99670
H1030       H  0.99295410  0.50512119  0.24838431     0.29420
O1031       O  0.96466531  0.48442661  0.26374274    -1.01430
H1032       H  0.55881957  0.05814970  0.34917331     0.29450
O1033       O  0.54262171  0.04347002  0.31860795    -1.03970
O1034       O  0.96091272  0.38865913  0.15592289    -0.81190
O1035       O  0.59049365  0.13366644  0.19106381    -0.80730
O1036       O  0.87271973  0.42900571  0.17028551    -0.79170
O1037       O  0.55150057  0.42448934  0.29278740    -0.82510
O1038       O  0.62594174  0.07596648  0.31029477    -0.80370
O1039       O  0.93246862  0.08342782  0.19375000    -0.79010
O1040       O  0.94179413  0.01688936  0.09256111    -0.80540
O1041       O  0.58235328  0.03174355  0.11612159    -0.82460
O1042       O  0.91350772  0.04329941  0.14942888    -0.79200
O1043       O  0.61518528  0.02138481  0.18923967    -0.81870
O1044       O  0.87765259  0.37262185  0.20797511    -0.77610
O1045       O  0.50106859  0.13486924  0.22094753    -0.77640
O1046       O  0.60587997  0.12789550  0.29832603    -0.77290
O1047       O  0.98169496  0.37220100  0.27296275    -0.80780
O1048       O  0.49186306  0.44562133  0.09400056    -0.80210
O1049       O  0.57016532  0.09199895  0.11817251    -0.78530
Eu1050     Eu  0.95205877  0.41657734  0.23611090     2.39770
Eu1051     Eu  0.53323785  0.09079504  0.25648961     2.39570
Eu1052     Eu  0.91702645  0.00379199  0.22304750     2.38400
Eu1053     Eu  0.56673411  0.00351311  0.26784215     2.39880
Eu1054     Eu  0.50812409  0.01421243  0.13903138     2.39790
O1055       O  0.55598117  0.05053602  0.20907595    -0.92950
O1056       O  0.93853141  0.46164388  0.17575370    -0.91840
C1057       C  0.97624020  0.40427154  0.10973825     1.02220
C1058       C  0.59726018  0.12637766  0.14442565     1.00940
C1059       C  0.86249554  0.38704329  0.17144132     1.00330
C1060       C  0.51822013  0.38339880  0.29546502     1.02340
C1061       C  0.63217343  0.11551363  0.31761645     1.01260
C1062       C  0.96593490  0.12448531  0.19427124     1.00110
C1063       C  0.91249591  0.02758563  0.10622615     1.00170
C1064       C  0.61541127  0.03282214  0.13975864     1.02780
H1065       H  0.49100858  0.07773777  0.15819902     0.30150
O1066       O  0.48693423  0.05572027  0.18538560    -1.05110
H1067       H  0.53387026  0.45016138  0.18028914     0.32200
O1068       O  0.52074278  0.46490288  0.19690558    -1.07670
C1069       C  0.80558986  0.32704965  0.04123609    -0.05880
C1070       C  0.79648113  0.28299055  0.05196072     0.00040
C1071       C  0.80930974  0.27480290  0.10291224    -0.08530
C1072       C  0.82423019  0.30804551  0.14072228    -0.05900
C1073       C  0.83659121  0.35322128  0.12860025     0.00030
C1074       C  0.82958164  0.36247424  0.07503813    -0.08440
C1075       C  0.85020231  0.40810998  0.04785548     0.61940
H1076       H  0.79811317  0.33562866  0.00272524     0.12640
H1077       H  0.83057478  0.29902517  0.17976655     0.12650
C1078       C  0.81351136  0.23487108  0.11965320     0.62180
F1079       F  0.86413350  0.40779653  0.99777391    -0.22990
F1080       F  0.88618312  0.43856960  0.07406525    -0.20320
F1081       F  0.81934028  0.42068916  0.04269950    -0.20000
F1082       F  0.80220789  0.20509654  0.08130947    -0.20050
F1083       F  0.78740808  0.21335041  0.16318140    -0.20370
F1084       F  0.85674762  0.24925377  0.13308452    -0.23050
C1085       C  0.70721551  0.16912087  0.08258559    -0.05880
C1086       C  0.70794878  0.20054115  0.04466960     0.00040
C1087       C  0.67842278  0.21636254  0.05175404    -0.08530
C1088       C  0.64372802  0.19239812  0.08742356    -0.05900
C1089       C  0.64033453  0.15827645  0.12015319     0.00030
C1090       C  0.67675390  0.15241929  0.12448234    -0.08440
C1091       C  0.68944883  0.14120387  0.17754747     0.61940
H1092       H  0.72964163  0.15700608  0.07973314     0.12640
H1093       H  0.62017136  0.20143310  0.09352307     0.12650
C1094       C  0.68149756  0.25788435  0.52531380     0.62180
F1095       F  0.72222519  0.13090076  0.17346572    -0.22990
F1096       F  0.65398738  0.10611772  0.20335079    -0.20320
F1097       F  0.70484305  0.17793689  0.20775455    -0.20000
F1098       F  0.64613346  0.24598822  0.49234391    -0.20050
F1099       F  0.71950169  0.28353333  0.49698422    -0.20370
F1100       F  0.68062020  0.28442629  0.56301470    -0.23050
C1101       C  0.79225630  0.29308176  0.41911095    -0.05880
C1102       C  0.80819562  0.27366198  0.45655596     0.00040
C1103       C  0.85206809  0.28303359  0.45203213    -0.08530
C1104       C  0.87968084  0.31604536  0.41488068    -0.05900
C1105       C  0.86449286  0.33889585  0.38269018     0.00030
C1106       C  0.81962430  0.32490486  0.38113694    -0.08440
C1107       C  0.80115920  0.34389789  0.34000401     0.61940
H1108       H  0.75927145  0.28652053  0.42222618     0.12640
H1109       H  0.91368716  0.32507936  0.41156941     0.12650
C1110       C  0.87152806  0.26149995  0.48765225     0.62180
F1111       F  0.75698245  0.32847118  0.34833875    -0.22990
F1112       F  0.80590342  0.33160584  0.29115386    -0.20320
F1113       F  0.82352120  0.38980504  0.34033014    -0.20000
F1114       F  0.90564175  0.26103081  0.46293341    -0.20050
F1115       F  0.84139836  0.21779543  0.50048516    -0.20370
F1116       F  0.88674975  0.28467859  0.53273466    -0.23050
C1117       C  0.69217150  0.20612262  0.41804061    -0.05880
C1118       C  0.71920338  0.19356507  0.44618494     0.00040
C1119       C  0.72407171  0.15955183  0.42355885    -0.08530
C1120       C  0.69584718  0.13462636  0.38181982    -0.05900
C1121       C  0.66732577  0.14656170  0.35587047     0.00030
C1122       C  0.67060554  0.18697470  0.37099052    -0.08440
C1123       C  0.65332782  0.21180063  0.33709047     0.61940
H1124       H  0.68893809  0.23280545  0.43149599     0.12640
H1125       H  0.69681629  0.10621782  0.36831406     0.12650
C1126       C  0.76188954  0.15282001  0.43824006     0.62180
F1127       F  0.67058850  0.25525367  0.35167931    -0.22990
F1128       F  0.60812947  0.19039436  0.34143141    -0.20320
F1129       F  0.66536896  0.21396952  0.28534899    -0.20000
F1130       F  0.75706920  0.11439041  0.41840678    -0.20050
F1131       F  0.76556497  0.15032937  0.49194759    -0.20370
F1132       F  0.79990500  0.18833763  0.41673815    -0.23050
C1133       C  0.79440630  0.48507359  0.06275913    -0.05880
C1134       C  0.79884456  0.52077793  0.03070372     0.00040
C1135       C  0.84148714  0.05855645  0.02318515    -0.08530
C1136       C  0.87798207  0.05597050  0.04212269    -0.05900
C1137       C  0.87315687  0.02071875  0.07608733     0.00030
C1138       C  0.82902239  0.48957575  0.09419356    -0.08440
C1139       C  0.81449531  0.46273491  0.14664424     0.61940
H1140       H  0.76258369  0.45487963  0.06707766     0.12640
H1141       H  0.91020554  0.08404319  0.03515551     0.12650
C1142       C  0.84977407  0.10274663  0.49909838     0.62180
F1143       F  0.78022600  0.46476949  0.16811032    -0.22990
F1144       F  0.84617158  0.47894543  0.18426513    -0.20320
F1145       F  0.79929068  0.41823144  0.13974751    -0.20000
F1146       F  0.87155098  0.13511798  0.03475820    -0.20050
F1147       F  0.81132544  0.10221524  0.48650462    -0.20370
F1148       F  0.87582734  0.11421145  0.45480006    -0.23050
C1149       C  0.69898606  0.06476308  0.02780775    -0.05880
C1150       C  0.72142040  0.54336808  0.04885968     0.00040
C1151       C  0.72192027  0.54022419  0.10495647    -0.08530
C1152       C  0.69153224  0.54627966  0.13339447    -0.05900
C1153       C  0.65672564  0.04814573  0.10821382     0.00030
C1154       C  0.66222147  0.06121232  0.05373485    -0.08440
C1155       C  0.62919532  0.06834655  0.02087627     0.61940
H1156       H  0.70199698  0.07243273  0.98626972     0.12640
H1157       H  0.69006190  0.54155890  0.17559490     0.12650
C1158       C  0.74527430  0.52076521  0.13540013     0.62180
F1159       F  0.64186087  0.07925569  0.96895289    -0.22990
F1160       F  0.62515710  0.10243144  0.03890477    -0.20320
F1161       F  0.58814759  0.03042540  0.02166096    -0.20000
F1162       F  0.78967811  0.54585428  0.12477436    -0.20050
F1163       F  0.72686661  0.47721227  0.12174311    -0.20370
F1164       F  0.74036415  0.52014411  0.18913414    -0.23050
C1165       C  0.80109653  0.45185692  0.40980941    -0.05880
C1166       C  0.83309586  0.98863740  0.37894738     0.00040
C1167       C  0.83023312  0.02803205  0.37609095    -0.08530
C1168       C  0.79918474  0.03068745  0.40791719    -0.05900
C1169       C  0.77083155  0.49602849  0.44384712     0.00030
C1170       C  0.76904512  0.45441351  0.44019750    -0.08440
C1171       C  0.73143939  0.41124492  0.46372069     0.61940
H1172       H  0.80062308  0.42056320  0.41005026     0.12640
H1173       H  0.79923027  0.06168941  0.40788627     0.12650
C1174       C  0.86181721  0.06850341  0.34167558     0.62180
F1175       F  0.70743870  0.38426982  0.42359028    -0.22990
F1176       F  0.70342019  0.41817302  0.49326668    -0.20320
F1177       F  0.74710527  0.38893175  0.49497335    -0.20000
F1178       F  0.85529120  0.05811959  0.28962757    -0.20050
F1179       F  0.90473717  0.08157956  0.35501297    -0.20370
F1180       F  0.85589622  0.10444853  0.34712795    -0.23050
C1181       C  0.68663885  0.00346438  0.42554403    -0.05880
C1182       C  0.68211741  0.48981028  0.47830333     0.00040
C1183       C  0.63918619  0.47004524  0.50154377    -0.08530
C1184       C  0.60553295  0.47277726  0.47289479    -0.05900
C1185       C  0.60996200  0.48552388  0.41945427     0.00030
C1186       C  0.65096249  0.99630624  0.39411745    -0.08440
C1187       C  0.65897223  0.99630545  0.33507066     0.61940
H1188       H  0.71907083  0.02119215  0.40865829     0.12640
H1189       H  0.57364018  0.45987267  0.49069469     0.12650
C1190       C  0.62695526  0.44202728  0.05353691     0.62180
F1191       F  0.70315095  0.01472813  0.32280405    -0.22990
F1192       F  0.64477174  0.01993228  0.30499507    -0.20320
F1193       F  0.63804580  0.95323227  0.31899576    -0.20000
F1194       F  0.64974829  0.46507744  0.09523410    -0.20050
F1195       F  0.63521437  0.40761094  0.55004749    -0.20370
F1196       F  0.58311513  0.42435329  0.06653910    -0.23050
C1197       C  0.49118819  0.34311099  0.10394578    -0.05880
C1198       C  0.98047132  0.37245680  0.07708465     0.00040
C1199       C  0.97775795  0.37170418  0.02222405    -0.08530
C1200       C  0.98089327  0.33816554  0.99769422    -0.05900
C1201       C  0.99581445  0.31087770  0.02320244     0.00030
C1202       C  0.50576337  0.31845462  0.07792442    -0.08440
C1203       C  0.53917081  0.31223947  0.10975104     0.61940
H1204       H  0.49528945  0.34492839  0.14610435     0.12640
H1205       H  0.97385319  0.33528835  0.95659628     0.12650
C1206       C  0.96924674  0.40394524  0.98936576     0.62180
F1207       F  0.56653447  0.35032606  0.13633285    -0.22990
F1208       F  0.56625899  0.30601452  0.07885768    -0.20320
F1209       F  0.51814026  0.27733792  0.14669345    -0.20000
F1210       F  0.00027348  0.44759148  0.99826889    -0.20050
F1211       F  0.92817204  0.39633142  0.00165885    -0.20370
F1212       F  0.97118922  0.39888433  0.93650018    -0.23050
C1213       C  0.95013474  0.20162966  0.08763432    -0.05880
C1214       C  0.99136795  0.22157000  0.06104914     0.00040
C1215       C  0.52306143  0.21232981  0.08357968    -0.08530
C1216       C  0.51284879  0.18260297  0.12741618    -0.05900
C1217       C  0.97148359  0.16003724  0.15210943     0.00030
C1218       C  0.93967600  0.17088240  0.13265879    -0.08440
C1219       C  0.89546043  0.15049698  0.15964696     0.61940
H1220       H  0.92545302  0.20835312  0.07128227     0.12640
H1221       H  0.53782114  0.17497905  0.14063696     0.12650
C1222       C  0.56775140  0.22947055  0.06014263     0.62180
F1223       F  0.87019559  0.16729064  0.13809925    -0.22990
F1224       F  0.90152250  0.15970930  0.21211408    -0.20320
F1225       F  0.87278425  0.10484496  0.15515192    -0.20000
F1226       F  0.57930698  0.26129308  0.02054489    -0.20050
F1227       F  0.56814149  0.19371037  0.03976582    -0.20370
F1228       F  0.59832314  0.24918027  0.09925416    -0.23050
C1229       C  0.98092404  0.27963232  0.39089231    -0.05880
C1230       C  0.51299726  0.29852060  0.43017735     0.00040
C1231       C  0.55100875  0.34052331  0.41707413    -0.08530
C1232       C  0.55282923  0.36453196  0.37042822    -0.05900
C1233       C  0.51920013  0.34874730  0.33371438     0.00030
C1234       C  0.48382627  0.30350415  0.34238762    -0.08540
C1235       C  0.94836602  0.28015178  0.30197598     0.61940
H1236       H  0.95232715  0.24709992  0.39948936     0.12640
H1237       H  0.57914861  0.39841428  0.36576352     0.12650
C1238       C  0.58557418  0.36605653  0.45639139     0.62180
F1239       F  0.92639212  0.23427110  0.31105316    -0.22990
F1240       F  0.46701247  0.28967357  0.25239967    -0.20320
F1241       F  0.91788954  0.29383149  0.30384094    -0.20000
F1242       F  0.59400435  0.33992089  0.49092629    -0.20050
F1243       F  0.56912858  0.38665833  0.98366820    -0.20370
F1244       F  0.62505832  0.39716951  0.43257545    -0.23050
C1245       C  0.98094941  0.16052239  0.48628951    -0.05880
C1246       C  0.49979392  0.20550284  0.46608641     0.00040
C1247       C  0.52130834  0.21401458  0.41578803    -0.08530
C1248       C  0.51148794  0.17740775  0.38610505    -0.05900
C1249       C  0.49988123  0.13563078  0.41046500     0.00030
C1250       C  0.98812586  0.12887652  0.46355352    -0.08440
C1251       C  0.98738395  0.09167076  0.49770489     0.61940
H1252       H  0.96407813  0.15058476  0.52325575     0.12640
H1253       H  0.52174861  0.18431418  0.34532708     0.12650
C1254       C  0.56258737  0.25575487  0.39495341     0.62180
F1255       F  0.98695461  0.09930379  0.55013880    -0.22990
F1256       F  0.02509596  0.08996546  0.48918638    -0.20320
F1257       F  0.95073352  0.05123407  0.48671838    -0.20000
F1258       F  0.58349120  0.28638875  0.43126716    -0.20050
F1259       F  0.55326891  0.27437052  0.35113223    -0.20370
F1260       F  0.59330819  0.24509207  0.38035084    -0.23050
C1261       C  0.99744861  0.23851422  0.50316126     0.00460
C1262       C  0.50286676  0.28027388  0.98736799     0.00460
C1263       C  0.72359644  0.51117854  0.01063800     0.00460
C1264       C  0.76169650  0.51090521  0.99527715     0.00460
C1265       C  0.73912999  0.21552145  0.99926695     0.00460
C1266       C  0.78119769  0.25213955  0.00477466     0.00460
O1267       O  0.51907801  0.11757811  0.83281343    -0.80230
O1268       O  0.90027480  0.37345410  0.80443822    -0.81790
O1269       O  0.90025948  0.98490115  0.87407948    -0.78810
O1270       O  0.54178939  0.99191774  0.90304513    -0.77190
O1271       O  0.56954933  0.96635578  0.84455006    -0.78980
O1272       O  0.86649825  0.98850440  0.79797320    -0.79910
O1273       O  0.91892716  0.41467893  0.87677980    -0.81240
O1274       O  0.98935646  0.06200819  0.89628025    -0.81530
Eu1275     Eu  0.97434266  0.99250203  0.85427794     2.39200
O1276       O  0.99718491  0.45079921  0.80789881    -0.89040
O1277       O  0.96238302  0.04086479  0.79522050    -0.92640
C1278       C  0.50314543  0.10264514  0.87874507     1.02050
C1279       C  0.89657842  0.37834825  0.85266535     1.01870
C1280       C  0.86842029  0.98608131  0.84858428     1.01810
C1281       C  0.57081357  0.98089457  0.88868832     0.99670
H1282       H  0.99276891  0.50498883  0.74846347     0.29420
O1283       O  0.96487227  0.48458381  0.76363772    -1.01430
H1284       H  0.55881127  0.05814141  0.84917438     0.29450
O1285       O  0.54261241  0.04346062  0.81860997    -1.03970
O1286       O  0.96093616  0.38868402  0.65592012    -0.81190
O1287       O  0.59048186  0.13365641  0.69107227    -0.80730
O1288       O  0.87274680  0.42902471  0.67028585    -0.79170
O1289       O  0.55150195  0.42448494  0.79278069    -0.82510
O1290       O  0.62593129  0.07595792  0.81029038    -0.80370
O1291       O  0.93246743  0.08342208  0.69375697    -0.79010
O1292       O  0.94179122  0.01688428  0.59256635    -0.80540
O1293       O  0.58234631  0.03173641  0.61612606    -0.82460
O1294       O  0.91350460  0.04329360  0.64943502    -0.79200
O1295       O  0.61517692  0.02137494  0.68924349    -0.81870
O1296       O  0.87768379  0.37264557  0.70797903    -0.77610
O1297       O  0.50105850  0.13485939  0.72094875    -0.77640
O1298       O  0.60586859  0.12788590  0.79832059    -0.77290
O1299       O  0.98171675  0.37222696  0.77294885    -0.80780
O1300       O  0.49186067  0.44561980  0.59400501    -0.80210
O1301       O  0.57015808  0.09198929  0.61818093    -0.78530
Eu1302     Eu  0.95209034  0.41661141  0.73610103     2.39770
Eu1303     Eu  0.53322487  0.09078326  0.75649216     2.39570
Eu1304     Eu  0.91702615  0.00378648  0.72305138     2.38400
Eu1305     Eu  0.56672331  0.00350297  0.76784285     2.39880
Eu1306     Eu  0.50811521  0.01420276  0.63903365     2.39790
O1307       O  0.55597013  0.05052593  0.70907858    -0.92950
O1308       O  0.93855353  0.46166311  0.67573787    -0.91840
C1309       C  0.97625872  0.40428941  0.60973279     1.02220
C1310       C  0.59725089  0.12636768  0.64443574     1.00940
C1311       C  0.86251983  0.38706125  0.67144765     1.00330
C1312       C  0.51821883  0.38339547  0.79545934     1.02340
C1313       C  0.63216350  0.11550559  0.81760894     1.01260
C1314       C  0.96593396  0.12447933  0.69427772     1.00110
C1315       C  0.91249282  0.02758035  0.60623199     1.00170
C1316       C  0.61540420  0.03281470  0.63976328     1.02780
H1317       H  0.49099930  0.07772799  0.65820029     0.30150
O1318       O  0.48692395  0.05570995  0.68538664    -1.05110
H1319       H  0.53386638  0.45016003  0.68029593     0.32200
O1320       O  0.52073947  0.46490213  0.69691225    -1.07670
C1321       C  0.80559131  0.32704706  0.54125907    -0.05880
C1322       C  0.79648092  0.28298775  0.55199058     0.00040
C1323       C  0.80931337  0.27480649  0.60294300    -0.08530
C1324       C  0.82424244  0.30805637  0.64074579    -0.05900
C1325       C  0.83660583  0.35323196  0.62861558     0.00030
C1326       C  0.82958835  0.36247709  0.57505349    -0.08440
C1327       C  0.85020262  0.40811000  0.54786359     0.61940
H1328       H  0.79811069  0.33562149  0.50274818     0.12640
H1329       H  0.83059111  0.29904142  0.67979078     0.12650
C1330       C  0.81350760  0.23487183  0.61969246     0.62180
F1331       F  0.86412565  0.40779126  0.49777917    -0.22990
F1332       F  0.88618768  0.43857502  0.57406284    -0.20320
F1333       F  0.81933797  0.42068639  0.54271458    -0.20000
F1334       F  0.80220239  0.20509377  0.58135244    -0.20050
F1335       F  0.78740052  0.21335703  0.66321984    -0.20370
F1336       F  0.85674202  0.24924939  0.63312816    -0.23050
C1337       C  0.70721032  0.16911547  0.58260932    -0.05880
C1338       C  0.70794476  0.20053631  0.54469405     0.00040
C1339       C  0.67841678  0.21635571  0.55177384    -0.08530
C1340       C  0.64371842  0.19238753  0.58743697    -0.05900
C1341       C  0.64032558  0.15826705  0.62016775     0.00030
C1342       C  0.67674611  0.15241215  0.62450243    -0.08440
C1343       C  0.68943722  0.14119407  0.67756826     0.61940
H1344       H  0.72963728  0.15700147  0.57975856     0.12640
H1345       H  0.62015729  0.20141750  0.59353016     0.12650
C1346       C  0.68150119  0.25788916  0.02529083     0.62180
F1347       F  0.72221766  0.13089628  0.67348973    -0.22990
F1348       F  0.65397488  0.10610331  0.70336408    -0.20320
F1349       F  0.70482409  0.17792343  0.70778006    -0.20000
F1350       F  0.64613384  0.24598946  0.99232532    -0.20050
F1351       F  0.71950275  0.28353634  0.99695568    -0.20370
F1352       F  0.68062688  0.28443431  0.06298971    -0.23050
C1353       C  0.79225867  0.29309549  0.91907553    -0.05880
C1354       C  0.80819774  0.27367543  0.95652115     0.00040
C1355       C  0.85207331  0.28305550  0.95200114    -0.08530
C1356       C  0.87968885  0.31607660  0.91485892    -0.05900
C1357       C  0.86450056  0.33892585  0.88266597     0.00030
C1358       C  0.81962901  0.32492478  0.88110518    -0.08440
C1359       C  0.80116225  0.34391109  0.83996620     0.61940
H1360       H  0.75927104  0.28652756  0.92218590     0.12640
H1361       H  0.91369709  0.32511569  0.91155420     0.12650
C1362       C  0.87153321  0.26151920  0.98761615     0.62180
F1363       F  0.75698324  0.32847729  0.84829465    -0.22990
F1364       F  0.80591363  0.33161908  0.79111921    -0.20320
F1365       F  0.82351747  0.38981827  0.84028918    -0.20000
F1366       F  0.90564782  0.26105432  0.96289452    -0.20050
F1367       F  0.84140441  0.21781314  0.00044229    -0.20370
F1368       F  0.88675318  0.28469266  0.03270220    -0.23050
C1369       C  0.69217190  0.20612510  0.91801668    -0.05880
C1370       C  0.71920476  0.19356866  0.94615993     0.00040
C1371       C  0.72407028  0.15955239  0.92353810    -0.08530
C1372       C  0.69584223  0.13462333  0.88180391    -0.05900
C1373       C  0.66731937  0.14655725  0.85585598     0.00030
C1374       C  0.67060136  0.18697253  0.87097095    -0.08440
C1375       C  0.65331958  0.21179492  0.83707120     0.61940
H1376       H  0.68893975  0.23280921  0.93147039     0.12640
H1377       H  0.69680937  0.10621291  0.86830104     0.12650
C1378       C  0.76188919  0.15282167  0.93821735     0.62180
F1379       F  0.67058035  0.25524922  0.85165566    -0.22990
F1380       F  0.60812155  0.19038756  0.84141787    -0.20320
F1381       F  0.66535605  0.21396002  0.78532861    -0.20000
F1382       F  0.75706737  0.11439038  0.91838732    -0.20050
F1383       F  0.76556884  0.15033497  0.99192460    -0.20370
F1384       F  0.79990298  0.18833820  0.91671029    -0.23050
C1385       C  0.79441168  0.48507521  0.56278423    -0.05880
C1386       C  0.79884361  0.52077762  0.53073061     0.00040
C1387       C  0.84148431  0.05855628  0.52319832    -0.08530
C1388       C  0.87797893  0.05596967  0.54213509    -0.05900
C1389       C  0.87315390  0.02071456  0.57609325     0.00030
C1390       C  0.82903317  0.48958058  0.59421027    -0.08440
C1391       C  0.81451420  0.46274666  0.64666520     0.61940
H1392       H  0.76259028  0.45488040  0.56710870     0.12640
H1393       H  0.91020177  0.08404405  0.53517329     0.12650
C1394       C  0.84977734  0.10274482  0.99907788     0.62180
F1395       F  0.78024838  0.46478519  0.66813621    -0.22990
F1396       F  0.84619729  0.47896187  0.68427827    -0.20320
F1397       F  0.79930769  0.41824189  0.63977454    -0.20000
F1398       F  0.87154351  0.13511519  0.53478489    -0.20050
F1399       F  0.81132874  0.10221403  0.98648515    -0.20370
F1400       F  0.87582717  0.11420280  0.95477752    -0.23050
C1401       C  0.69898164  0.06476082  0.52781471    -0.05880
C1402       C  0.72142246  0.54336757  0.54888793     0.00040
C1403       C  0.72191924  0.54022170  0.60498411    -0.08530
C1404       C  0.69153123  0.54627926  0.63341855    -0.05900
C1405       C  0.65672011  0.04814115  0.60822003     0.00030
C1406       C  0.66221685  0.06120950  0.55374170    -0.08440
C1407       C  0.62919166  0.06834562  0.52088351     0.61940
H1408       H  0.70199217  0.07243071  0.48627684     0.12640
H1409       H  0.69005888  0.54155831  0.67561899     0.12650
C1410       C  0.74527316  0.52076291  0.63542976     0.62180
F1411       F  0.64185811  0.07925676  0.46896061    -0.22990
F1412       F  0.62515402  0.10243018  0.53891415    -0.20320
F1413       F  0.58814359  0.03042500  0.52166581    -0.20000
F1414       F  0.78967750  0.54585280  0.62480592    -0.20050
F1415       F  0.72686811  0.47720976  0.62177381    -0.20370
F1416       F  0.74036080  0.52014205  0.68916326    -0.23050
C1417       C  0.80111925  0.45186939  0.90979057    -0.05880
C1418       C  0.83309442  0.98863043  0.87894806     0.00040
C1419       C  0.83022727  0.02802264  0.87608376    -0.08530
C1420       C  0.79917848  0.03067865  0.90790834    -0.05900
C1421       C  0.77084067  0.49603453  0.94381629     0.00030
C1422       C  0.76906086  0.45442210  0.94017043    -0.08440
C1423       C  0.73145330  0.41125126  0.96368647     0.61940
H1424       H  0.80064958  0.42057742  0.91003605     0.12640
H1425       H  0.79922153  0.06167955  0.90787247     0.12650
C1426       C  0.86180711  0.06849129  0.84166170     0.62180
F1427       F  0.70746087  0.38427733  0.92355147    -0.22990
F1428       F  0.70342720  0.41817574  0.99322386    -0.20320
F1429       F  0.74711614  0.38893863  0.99494522    -0.20000
F1430       F  0.85527779  0.05810133  0.78961572    -0.20050
F1431       F  0.90472886  0.08157227  0.85499569    -0.20370
F1432       F  0.85588339  0.10443529  0.84710892    -0.23050
C1433       C  0.68663686  0.00346129  0.92554149    -0.05880
C1434       C  0.68211674  0.48980877  0.97827644     0.00040
C1435       C  0.63918819  0.47004400  0.00152456    -0.08530
C1436       C  0.60553183  0.47277639  0.97288460    -0.05900
C1437       C  0.60995379  0.48552521  0.91944521     0.00030
C1438       C  0.65095946  0.99630112  0.89411579    -0.08440
C1439       C  0.65896841  0.99630017  0.83506875     0.61940
H1440       H  0.71906850  0.02118959  0.90865488     0.12640
H1441       H  0.57364118  0.45987035  0.99069103     0.12650
C1442       C  0.62694800  0.44202922  0.55355655     0.62180
F1443       F  0.70314629  0.01471698  0.82280184    -0.22990
F1444       F  0.64477296  0.01993237  0.80499504    -0.20320
F1445       F  0.63803664  0.95322752  0.81899183    -0.20000
F1446       F  0.64974282  0.46507812  0.59525392    -0.20050
F1447       F  0.63522818  0.40761359  0.05002509    -0.20370
F1448       F  0.58310821  0.42436160  0.56655556    -0.23050
C1449       C  0.49118435  0.34310895  0.60395261    -0.05880
C1450       C  0.98048238  0.37246703  0.57708545     0.00040
C1451       C  0.97775764  0.37170176  0.52222667    -0.08530
C1452       C  0.98088851  0.33815771  0.49770429    -0.05900
C1453       C  0.99581482  0.31087542  0.52321528     0.00030
C1454       C  0.50575885  0.31845163  0.57793194    -0.08440
C1455       C  0.53916375  0.31223352  0.60976040     0.61940
H1456       H  0.49528533  0.34492666  0.64611120     0.12640
H1457       H  0.97384150  0.33527191  0.45660849     0.12650
C1458       C  0.96923759  0.40393389  0.48936310     0.62180
F1459       F  0.56652749  0.35031888  0.63634421    -0.22990
F1460       F  0.56625226  0.30600773  0.57886883    -0.20320
F1461       F  0.51813039  0.27733099  0.64670102    -0.20000
F1462       F  0.00026131  0.44758332  0.49825533    -0.20050
F1463       F  0.92816203  0.39631637  0.50165995    -0.20370
F1464       F  0.97117557  0.39886433  0.43649917    -0.23050
C1465       C  0.95013445  0.20162788  0.58764749    -0.05880
C1466       C  0.99136687  0.22156663  0.56106092     0.00040
C1467       C  0.52305596  0.21232251  0.58358174    -0.08530
C1468       C  0.51284086  0.18259197  0.62741513    -0.05900
C1469       C  0.97148196  0.16003072  0.65211645     0.00030
C1470       C  0.93967602  0.17088019  0.63267137    -0.08440
C1471       C  0.89546285  0.15049875  0.65966445     0.61940
H1472       H  0.92545356  0.20835367  0.57129786     0.12640
H1473       H  0.53781148  0.17496502  0.64063432     0.12650
C1474       C  0.56774698  0.22946523  0.56014696     0.62180
F1475       F  0.87019971  0.16729595  0.63812096    -0.22990
F1476       F  0.90152986  0.15971165  0.71213129    -0.20320
F1477       F  0.87278243  0.10484655  0.65517015    -0.20000
F1478       F  0.57930534  0.26129255  0.52055439    -0.20050
F1479       F  0.56813762  0.19370745  0.53976382    -0.20370
F1480       F  0.59831644  0.24917006  0.59926187    -0.23050
C1481       C  0.98092607  0.27964626  0.89087905    -0.05880
C1482       C  0.51299628  0.29851828  0.93016999     0.00040
C1483       C  0.55100996  0.34051825  0.91706203    -0.08530
C1484       C  0.55283083  0.36452488  0.87041431    -0.05900
C1485       C  0.51919829  0.34874217  0.83370538     0.00030
C1486       C  0.48382093  0.30350139  0.84238321    -0.08540
C1487       C  0.94837019  0.28017624  0.80196395     0.61940
H1488       H  0.95232688  0.24711514  0.89947381     0.12640
H1489       H  0.57915313  0.39840566  0.86574471     0.12650
C1490       C  0.58557770  0.36605252  0.95637613     0.62180
F1491       F  0.92638649  0.23429530  0.81104103    -0.22990
F1492       F  0.46699791  0.28966987  0.75239702    -0.20320
F1493       F  0.91790175  0.29386652  0.80382758    -0.20000
F1494       F  0.59400873  0.33991750  0.99091089    -0.20050
F1495       F  0.56912329  0.38666061  0.48368395    -0.20370
F1496       F  0.62506105  0.39716449  0.93255767    -0.23050
C1497       C  0.98095636  0.16052414  0.98628706    -0.05880
C1498       C  0.49979154  0.20549938  0.96608497     0.00040
C1499       C  0.52129758  0.21400664  0.91578195    -0.08530
C1500       C  0.51147192  0.17739691  0.88610155    -0.05900
C1501       C  0.49987182  0.13562276  0.91046525     0.00030
C1502       C  0.98813171  0.12887788  0.96355091    -0.08440
C1503       C  0.98739611  0.09167558  0.99770318     0.61940
H1504       H  0.96409064  0.15058738  0.02325695     0.12640
H1505       H  0.52172555  0.18429988  0.84532114     0.12650
C1506       C  0.56257639  0.25574422  0.89494177     0.62180
F1507       F  0.98696906  0.09930980  0.05013718    -0.22990
F1508       F  0.02510964  0.08997411  0.98918038    -0.20320
F1509       F  0.95074705  0.05123650  0.98672106    -0.20000
F1510       F  0.58348593  0.28637892  0.93125357    -0.20050
F1511       F  0.55325577  0.27435978  0.85112230    -0.20370
F1512       F  0.59329316  0.24507767  0.88033417    -0.23050
C1513       C  0.99744070  0.73850963  0.00315848     0.00460
C1514       C  0.50286280  0.78027272  0.48736887     0.00460
C1515       C  0.72360402  0.01117815  0.51065101     0.00460
C1516       C  0.76170597  0.01090763  0.49529135     0.00460
C1517       C  0.73913648  0.71553097  0.49927212     0.00460
C1518       C  0.78120427  0.75214977  0.50478274     0.00460
O1519       O  0.51908625  0.61758678  0.33281030    -0.80230
O1520       O  0.90027933  0.87345604  0.30443601    -0.81790
O1521       O  0.90022577  0.48488546  0.37409318    -0.78810
O1522       O  0.54178984  0.49192261  0.40304393    -0.77190
O1523       O  0.56956226  0.46637333  0.34454688    -0.78980
O1524       O  0.86646266  0.48849003  0.29798696    -0.79910
O1525       O  0.91893211  0.91468212  0.37677672    -0.81240
O1526       O  0.98932473  0.56199253  0.39629026    -0.81530
Eu1527     Eu  0.97430720  0.49247847  0.35429568     2.39200
O1528       O  0.99718854  0.95080243  0.30789645    -0.89040
O1529       O  0.96235089  0.54084686  0.29523191    -0.92640
C1530       C  0.50315222  0.60265324  0.37874137     1.02050
C1531       C  0.89658373  0.87835079  0.35266323     1.01870
C1532       C  0.86838748  0.48606746  0.34859790     1.01810
C1533       C  0.57081701  0.48090315  0.38868856     0.99670
H1534       H  0.99277278  0.00499214  0.24846158     0.29420
O1535       O  0.96487593  0.98458695  0.26363556    -1.01430
H1536       H  0.55881730  0.55815025  0.34917043     0.29450
O1537       O  0.54261852  0.54347030  0.31860559    -1.03970
O1538       O  0.96094427  0.88868840  0.15591858    -0.81190
O1539       O  0.59049080  0.63366395  0.19106191    -0.80730
O1540       O  0.87275320  0.92903146  0.17027775    -0.79170
O1541       O  0.55150283  0.92448619  0.29278264    -0.82510
O1542       O  0.62593843  0.57597033  0.31028682    -0.80370
O1543       O  0.93243850  0.58340570  0.19375915    -0.79010
O1544       O  0.94177288  0.51687311  0.09256869    -0.80540
O1545       O  0.58235093  0.53174754  0.11611847    -0.82460
O1546       O  0.91347796  0.54327533  0.14943695    -0.79200
O1547       O  0.61518388  0.52138891  0.18923567    -0.81870
O1548       O  0.87768992  0.87265027  0.20796589    -0.77610
O1549       O  0.50106226  0.63486718  0.22094925    -0.77640
O1550       O  0.60587532  0.62789807  0.29832024    -0.77290
O1551       O  0.98172023  0.87222975  0.27294971    -0.80780
O1552       O  0.49186496  0.94562223  0.09400277    -0.80210
O1553       O  0.57016227  0.59199805  0.11816943    -0.78530
Eu1554     Eu  0.95209439  0.91661442  0.23609839     2.39770
Eu1555     Eu  0.53323319  0.59079401  0.25648693     2.39570
Eu1556     Eu  0.91698628  0.50376410  0.22306087     2.38400
Eu1557     Eu  0.56673169  0.50351512  0.26783821     2.39880
Eu1558     Eu  0.50812033  0.51421192  0.13902834     2.39790
O1559       O  0.55597697  0.55053632  0.20907255    -0.92950
O1560       O  0.93855995  0.96166842  0.17573597    -0.91840
C1561       C  0.97626671  0.90429455  0.10973136     1.02220
C1562       C  0.59725776  0.62637574  0.14442361     1.00940
C1563       C  0.86252671  0.88706824  0.17143583     1.00330
C1564       C  0.51822099  0.88339628  0.29545999     1.02340
C1565       C  0.63217018  0.61551747  0.31760821     1.01260
C1566       C  0.96590814  0.62446235  0.19427727     1.00110
C1567       C  0.91247201  0.52756618  0.10623258     1.00170
C1568       C  0.61540964  0.53282731  0.13975496     1.02780
H1569       H  0.49100369  0.57773692  0.15819726     0.30150
O1570       O  0.48692961  0.55571905  0.18538325    -1.05110
H1571       H  0.53387084  0.95016010  0.18029284     0.32200
O1572       O  0.52074442  0.96490264  0.19690926    -1.07670
C1573       C  0.80559797  0.82706329  0.04124261    -0.05880
C1574       C  0.79648785  0.78300371  0.05196907     0.00040
C1575       C  0.80932051  0.77481894  0.10291997    -0.08530
C1576       C  0.82424882  0.80806571  0.14072651    -0.05900
C1577       C  0.83661329  0.85324197  0.12860076     0.00030
C1578       C  0.82959754  0.86249082  0.07503939    -0.08440
C1579       C  0.85021976  0.90812476  0.04785171     0.61940
H1580       H  0.79811686  0.83564009  0.00273306     0.12640
H1581       H  0.83059697  0.79904810  0.17977040     0.12650
C1582       C  0.81351672  0.73488453  0.11966408     0.62180
F1583       F  0.86414171  0.90780441  0.99776725    -0.22990
F1584       F  0.88620693  0.93858405  0.07405342    -0.20320
F1585       F  0.81936149  0.92070927  0.04270231    -0.20000
F1586       F  0.80221107  0.70510861  0.08132171    -0.20050
F1587       F  0.78741140  0.71336699  0.16319189    -0.20370
F1588       F  0.85675186  0.74926279  0.13309682    -0.23050
C1589       C  0.70721914  0.66912806  0.08259108    -0.05880
C1590       C  0.70795283  0.70054871  0.04467534     0.00040
C1591       C  0.67842098  0.71636341  0.05175412    -0.08530
C1592       C  0.64372211  0.69239253  0.08741636    -0.05900
C1593       C  0.64033215  0.65827528  0.12015120     0.00030
C1594       C  0.67675473  0.65242336  0.12448511    -0.08440
C1595       C  0.68944839  0.64120863  0.17755134     0.61940
H1596       H  0.72964699  0.65701525  0.07974069     0.12640
H1597       H  0.62015851  0.70141908  0.09350630     0.12650
C1598       C  0.68148709  0.75787794  0.52528216     0.62180
F1599       F  0.72222792  0.63090963  0.17347233    -0.22990
F1600       F  0.65398724  0.60611998  0.20335182    -0.20320
F1601       F  0.70483783  0.67794054  0.20775930    -0.20000
F1602       F  0.64612731  0.74597769  0.49230339    -0.20050
F1603       F  0.71949655  0.78353715  0.49696459    -0.20370
F1604       F  0.68059559  0.78441213  0.56298314    -0.23050
C1605       C  0.79226702  0.79311080  0.41908708    -0.05880
C1606       C  0.80820481  0.77368727  0.45652958     0.00040
C1607       C  0.85207800  0.78306087  0.45200359    -0.08530
C1608       C  0.87969251  0.81607760  0.41485626    -0.05900
C1609       C  0.86450563  0.83892925  0.38266510     0.00030
C1610       C  0.81963568  0.82493476  0.38111152    -0.08440
C1611       C  0.80116879  0.84392163  0.33997347     0.61940
H1612       H  0.75928216  0.78654941  0.42220328     0.12640
H1613       H  0.91369931  0.82511245  0.41154693     0.12650
C1614       C  0.87153721  0.76152327  0.48761779     0.62180
F1615       F  0.75699206  0.82849493  0.34830859    -0.22990
F1616       F  0.80591189  0.83162259  0.29112710    -0.20320
F1617       F  0.82352994  0.88982915  0.34028969    -0.20000
F1618       F  0.90565172  0.76105799  0.46289639    -0.20050
F1619       F  0.84140772  0.71781720  0.50044258    -0.20370
F1620       F  0.88675720  0.78469571  0.53270457    -0.23050
C1621       C  0.69218606  0.70614178  0.41801224    -0.05880
C1622       C  0.71921276  0.69358031  0.44616215     0.00040
C1623       C  0.72407255  0.65955899  0.42354477    -0.08530
C1624       C  0.69584407  0.63463018  0.38181043    -0.05900
C1625       C  0.66732577  0.64656793  0.35585742     0.00030
C1626       C  0.67061313  0.68698684  0.37096785    -0.08440
C1627       C  0.65333450  0.71181043  0.33706418     0.61940
H1628       H  0.68895940  0.73283060  0.43145982     0.12640
H1629       H  0.69680789  0.60621700  0.36831101     0.12650
C1630       C  0.76188939  0.65282556  0.43822567     0.62180
F1631       F  0.67059801  0.75526607  0.35164482    -0.22990
F1632       F  0.60813654  0.69040704  0.34140955    -0.20320
F1633       F  0.66537095  0.71397146  0.28532248    -0.20000
F1634       F  0.75706459  0.61439203  0.41839882    -0.20050
F1635       F  0.76556957  0.65034167  0.49193312    -0.20370
F1636       F  0.79990394  0.68833950  0.41671635    -0.23050
C1637       C  0.79442435  0.98508519  0.06276943    -0.05880
C1638       C  0.79885765  0.02078537  0.03070995     0.00040
C1639       C  0.84147521  0.55854834  0.02318611    -0.08530
C1640       C  0.87796705  0.55595903  0.04212809    -0.05900
C1641       C  0.87313698  0.52070298  0.07608832     0.00030
C1642       C  0.82904444  0.98959274  0.09420025    -0.08440
C1643       C  0.81452377  0.96275696  0.14665409     0.61940
H1644       H  0.76260324  0.95488989  0.06709260     0.12640
H1645       H  0.91019141  0.58403227  0.03516862     0.12650
C1646       C  0.84975997  0.60274006  0.49910692     0.62180
F1647       F  0.78025880  0.96479621  0.16812571    -0.22990
F1648       F  0.84620564  0.97896937  0.18426855    -0.20320
F1649       F  0.79931596  0.91825225  0.13976089    -0.20000
F1650       F  0.87154156  0.63510941  0.03476537    -0.20050
F1651       F  0.81131053  0.60220822  0.48651670    -0.20370
F1652       F  0.87580995  0.61420275  0.45480596    -0.23050
C1653       C  0.69898163  0.56476685  0.02780152    -0.05880
C1654       C  0.72142660  0.04336638  0.04886698     0.00040
C1655       C  0.72192532  0.04022220  0.10496361    -0.08530
C1656       C  0.69153292  0.04627181  0.13340030    -0.05900
C1657       C  0.65672419  0.54815295  0.10820934     0.00030
C1658       C  0.66221838  0.56121780  0.05372983    -0.08440
C1659       C  0.62919200  0.56835194  0.02087192     0.61940
H1660       H  0.70199202  0.57243643  0.98626350     0.12640
H1661       H  0.69006086  0.04154892  0.17560053     0.12650
C1662       C  0.74528582  0.02077103  0.13540870     0.62180
F1663       F  0.64185622  0.57925959  0.96894805    -0.22990
F1664       F  0.62515571  0.60243814  0.03889976    -0.20320
F1665       F  0.58814388  0.53043116  0.02165813    -0.20000
F1666       F  0.78968883  0.04586451  0.12477891    -0.20050
F1667       F  0.72688283  0.97721699  0.12175779    -0.20370
F1668       F  0.74037835  0.02015452  0.18914257    -0.23050
C1669       C  0.80112551  0.95187340  0.40979269    -0.05880
C1670       C  0.83306583  0.48861955  0.37896258     0.00040
C1671       C  0.83020636  0.52801567  0.37610424    -0.08530
C1672       C  0.79916197  0.53067434  0.40793238    -0.05900
C1673       C  0.77085243  0.99603972  0.44382939     0.00030
C1674       C  0.76906997  0.95442651  0.44017818    -0.08440
C1675       C  0.73146187  0.91125524  0.46369287     0.61940
H1676       H  0.80065379  0.92058060  0.41003381     0.12640
H1677       H  0.79921032  0.56167770  0.40790189     0.12650
C1678       C  0.86178982  0.56848503  0.34168553     0.62180
F1679       F  0.70746489  0.88428610  0.42355645    -0.22990
F1680       F  0.70344003  0.91817952  0.49323893    -0.20320
F1681       F  0.74712423  0.88893731  0.49494266    -0.20000
F1682       F  0.85525991  0.55809914  0.28963826    -0.20050
F1683       F  0.90471014  0.58155971  0.35501920    -0.20370
F1684       F  0.85587157  0.60443192  0.34713763    -0.23050
C1685       C  0.68663394  0.50346960  0.42556203    -0.05880
C1686       C  0.68212631  0.98980771  0.47828627     0.00040
C1687       C  0.63919622  0.97004262  0.50153042    -0.08530
C1688       C  0.60554276  0.97277911  0.47288801    -0.05900
C1689       C  0.60996721  0.98552556  0.41944771     0.00030
C1690       C  0.65095978  0.49630606  0.39413001    -0.08440
C1691       C  0.65897642  0.49630872  0.33508424     0.61940
H1692       H  0.71906739  0.52120519  0.40868131     0.12640
H1693       H  0.57365170  0.95987552  0.49069222     0.12650
C1694       C  0.62696155  0.94202318  0.05354096     0.62180
F1695       F  0.70315408  0.51470996  0.32282734    -0.22990
F1696       F  0.64479964  0.51995764  0.30501096    -0.20320
F1697       F  0.63803326  0.45323869  0.31899805    -0.20000
F1698       F  0.64975913  0.96507050  0.09523778    -0.20050
F1699       F  0.63522719  0.90760624  0.55002579    -0.20370
F1700       F  0.58312267  0.92435499  0.06654547    -0.23050
C1701       C  0.49118523  0.84311000  0.10395131    -0.05880
C1702       C  0.98049040  0.87247277  0.07708274     0.00040
C1703       C  0.97776655  0.87170938  0.02222371    -0.08530
C1704       C  0.98089316  0.83816326  0.99770005    -0.05900
C1705       C  0.99581383  0.81087575  0.02321084     0.00030
C1706       C  0.50575882  0.81845201  0.07793091    -0.08440
C1707       C  0.53916436  0.81223470  0.10975930     0.61940
H1708       H  0.49528650  0.84492797  0.14610986     0.12640
H1709       H  0.97384681  0.83527978  0.95660385     0.12650
C1710       C  0.96925181  0.90394606  0.98936149     0.62180
F1711       F  0.56652797  0.85032033  0.13634280    -0.22990
F1712       F  0.56625317  0.80600938  0.07886788    -0.20320
F1713       F  0.51813162  0.77733245  0.14670038    -0.20000
F1714       F  0.00027918  0.94759390  0.99825563    -0.20050
F1715       F  0.92817824  0.89633350  0.00165866    -0.20370
F1716       F  0.97118903  0.89887793  0.93649704    -0.23050
C1717       C  0.95012049  0.70161932  0.08764228    -0.05880
C1718       C  0.99135468  0.72155823  0.06105899     0.00040
C1719       C  0.52305517  0.71232510  0.08358103    -0.08530
C1720       C  0.51284168  0.68259664  0.12741568    -0.05900
C1721       C  0.97146021  0.66001615  0.15211459     0.00030
C1722       C  0.93965721  0.67086847  0.13266484    -0.08440
C1723       C  0.89544199  0.65048733  0.15965258     0.61940
H1724       H  0.92544157  0.70834726  0.07129071     0.12640
H1725       H  0.53781283  0.67497030  0.14063450     0.12650
C1726       C  0.56774478  0.72946585  0.06014322     0.62180
F1727       F  0.87018054  0.66728480  0.13810427    -0.22990
F1728       F  0.90150481  0.65969981  0.21211962    -0.20320
F1729       F  0.87276213  0.60483529  0.15515795    -0.20000
F1730       F  0.57930333  0.76129441  0.02055235    -0.20050
F1731       F  0.56813174  0.69370749  0.03975618    -0.20370
F1732       F  0.59831614  0.74916814  0.09925704    -0.23050
C1733       C  0.98093047  0.77964812  0.39087929    -0.05880
C1734       C  0.51299487  0.79851847  0.43017141     0.00040
C1735       C  0.55100726  0.84051983  0.41706709    -0.08530
C1736       C  0.55283007  0.86452715  0.37041944    -0.05900
C1737       C  0.51920041  0.84874344  0.33370680     0.00030
C1738       C  0.48382495  0.80350122  0.34238113    -0.08540
C1739       C  0.94837517  0.78017832  0.30196395     0.61940
H1740       H  0.95233132  0.74711685  0.39947354     0.12640
H1741       H  0.57915142  0.89840863  0.36575298     0.12650
C1742       C  0.58557062  0.86605438  0.45638471     0.62180
F1743       F  0.92639189  0.73429735  0.31104060    -0.22990
F1744       F  0.46700744  0.78967188  0.25239361    -0.20320
F1745       F  0.91790633  0.79386807  0.30382760    -0.20000
F1746       F  0.59399460  0.83991937  0.49092788    -0.20050
F1747       F  0.56912106  0.88665842  0.98367237    -0.20370
F1748       F  0.62505752  0.89716216  0.43257001    -0.23050
C1749       C  0.98093369  0.66051934  0.48628578    -0.05880
C1750       C  0.49979020  0.70550249  0.46608131     0.00040
C1751       C  0.52130956  0.71401505  0.41578631    -0.08530
C1752       C  0.51148981  0.67740896  0.38610250    -0.05900
C1753       C  0.49987822  0.63563043  0.41046158     0.00030
C1754       C  0.98810689  0.62886973  0.46355433    -0.08440
C1755       C  0.98736804  0.59166772  0.49771037     0.61940
H1756       H  0.96406311  0.65058472  0.52325246     0.12640
H1757       H  0.52175464  0.68431663  0.34532599     0.12650
C1758       C  0.56259115  0.75575470  0.39495602     0.62180
F1759       F  0.98694287  0.59930639  0.55014314    -0.22990
F1760       F  0.02507946  0.58996181  0.48918977    -0.20320
F1761       F  0.95071705  0.55122937  0.48673072    -0.20000
F1762       F  0.58349146  0.78638931  0.43126954    -0.20050
F1763       F  0.55327730  0.77437032  0.35113094    -0.20370
F1764       F  0.59331317  0.74509052  0.38036228    -0.23050
C1765       C  0.99744311  0.73851629  0.50315025     0.00460
C1766       C  0.50286107  0.78027135  0.98737397     0.00460
C1767       C  0.72360499  0.01117744  0.01064657     0.00460
C1768       C  0.76170633  0.01090634  0.99528567     0.00460
C1769       C  0.73913557  0.71553166  0.99927415     0.00460
C1770       C  0.78120285  0.75215105  0.00478327     0.00460
O1771       O  0.51908290  0.61758686  0.83281204    -0.80230
O1772       O  0.90027731  0.87345276  0.80443594    -0.81790
O1773       O  0.90025468  0.48490290  0.87407719    -0.78810
O1774       O  0.54178322  0.49192777  0.90304993    -0.77190
O1775       O  0.56952043  0.46634230  0.84455972    -0.78980
O1776       O  0.86649361  0.48850606  0.79797078    -0.79910
O1777       O  0.91893125  0.91467785  0.87677762    -0.81240
O1778       O  0.98935480  0.56200789  0.89628291    -0.81530
Eu1779     Eu  0.97433826  0.49250277  0.85427734     2.39200
O1780       O  0.99718863  0.95079788  0.80789889    -0.89040
O1781       O  0.96237838  0.54086602  0.79521991    -0.92640
C1782       C  0.50314677  0.60265249  0.87874241     1.02050
C1783       C  0.89658174  0.87834723  0.85266324     1.01870
C1784       C  0.86841551  0.48608309  0.84858172     1.01810
C1785       C  0.57079958  0.48089545  0.88869265     0.99670
H1786       H  0.99277280  0.00498735  0.74846412     0.29420
O1787       O  0.96487615  0.98458200  0.76363824    -1.01430
H1788       H  0.55881319  0.55815068  0.84917470     0.29450
O1789       O  0.54261439  0.54346917  0.81861062    -1.03970
O1790       O  0.96094375  0.88868560  0.65591816    -0.81190
O1791       O  0.59049137  0.63365812  0.69106376    -0.80730
O1792       O  0.87275155  0.92902626  0.67028233    -0.79170
O1793       O  0.55149230  0.92447712  0.79278487    -0.82510
O1794       O  0.62593667  0.57596602  0.81029766    -0.80370
O1795       O  0.93246402  0.58342411  0.69375167    -0.79010
O1796       O  0.94178301  0.51687987  0.59256701    -0.80540
O1797       O  0.58235115  0.53174803  0.61613062    -0.82460
O1798       O  0.91349985  0.54329345  0.64943436    -0.79200
O1799       O  0.61518110  0.52138752  0.68924961    -0.81870
O1800       O  0.87769086  0.87264538  0.70796678    -0.77610
O1801       O  0.50106248  0.63486694  0.72094391    -0.77640
O1802       O  0.60587470  0.62789465  0.79832266    -0.77290
O1803       O  0.98171977  0.87222482  0.77295430    -0.80780
O1804       O  0.49185545  0.94561320  0.59400477    -0.80210
O1805       O  0.57015808  0.59199504  0.61816881    -0.78530
Eu1806     Eu  0.95209494  0.91660984  0.73610036     2.39770
Eu1807     Eu  0.53323153  0.59079320  0.75648918     2.39570
Eu1808     Eu  0.91702202  0.50378776  0.72305054     2.38400
Eu1809     Eu  0.56672742  0.50351092  0.76784816     2.39880
Eu1810     Eu  0.50811768  0.51421006  0.63903258     2.39790
O1811       O  0.55597269  0.55053123  0.70907905    -0.92950
O1812       O  0.93855915  0.96166321  0.67573879    -0.91840
C1813       C  0.97626453  0.90429199  0.60973033     1.02220
C1814       C  0.59725635  0.62637060  0.64442410     1.00940
C1815       C  0.86252611  0.88706343  0.67143855     1.00330
C1816       C  0.51821107  0.88338713  0.79546266     1.02340
C1817       C  0.63216874  0.61551406  0.81761434     1.01260
C1818       C  0.96593068  0.62448174  0.69427060     1.00110
C1819       C  0.91248532  0.52757676  0.60623305     1.00170
C1820       C  0.61540889  0.53282747  0.63976956     1.02780
H1821       H  0.49100041  0.57773416  0.65819841     0.30150
O1822       O  0.48692686  0.55571762  0.68538590    -1.05110
H1823       H  0.53386008  0.95014908  0.68029532     0.32200
O1824       O  0.52073316  0.96489127  0.69691142    -1.07670
C1825       C  0.80559272  0.82705874  0.54124646    -0.05880
C1826       C  0.79648774  0.78300066  0.55196991     0.00040
C1827       C  0.80932386  0.77481645  0.60291898    -0.08530
C1828       C  0.82425101  0.80806202  0.64072677    -0.05900
C1829       C  0.83661221  0.85323765  0.62860315     0.00030
C1830       C  0.82959247  0.86248625  0.57504313    -0.08440
C1831       C  0.85021000  0.90811974  0.54785516     0.61940
H1832       H  0.79810877  0.83563525  0.50273838     0.12640
H1833       H  0.83060130  0.79904432  0.67976951     0.12650
C1834       C  0.81352425  0.73488397  0.61966012     0.62180
F1835       F  0.86413745  0.90780155  0.49777308    -0.22990
F1836       F  0.88619246  0.93858324  0.57405899    -0.20320
F1837       F  0.81934655  0.92069723  0.54270056    -0.20000
F1838       F  0.80222211  0.70511052  0.58131543    -0.20050
F1839       F  0.78741889  0.71336282  0.66318694    -0.20370
F1840       F  0.85675991  0.74926537  0.63309352    -0.23050
C1841       C  0.70722447  0.66913409  0.58259742    -0.05880
C1842       C  0.70795285  0.70054712  0.54467347     0.00040
C1843       C  0.67841202  0.71635183  0.55174175    -0.08530
C1844       C  0.64370924  0.69237462  0.58739696    -0.05900
C1845       C  0.64032952  0.65827082  0.62014847     0.00030
C1846       C  0.67675814  0.65242879  0.62449036    -0.08440
C1847       C  0.68944963  0.64121452  0.67755835     0.61940
H1848       H  0.72965699  0.65702666  0.57975372     0.12640
H1849       H  0.62013307  0.70138621  0.59346928     0.12650
C1850       C  0.68149802  0.75789017  0.02529355     0.62180
F1851       F  0.72222982  0.63091616  0.67348266    -0.22990
F1852       F  0.65398795  0.60612500  0.70335732    -0.20320
F1853       F  0.70483702  0.67794651  0.70776575    -0.20000
F1854       F  0.64613397  0.74599047  0.99232225    -0.20050
F1855       F  0.71950314  0.78354304  0.99696626    -0.20370
F1856       F  0.68061569  0.78442975  0.06299406    -0.23050
C1857       C  0.79226396  0.79310660  0.91908429    -0.05880
C1858       C  0.80820243  0.77368576  0.95652953     0.00040
C1859       C  0.85207571  0.78305986  0.95200575    -0.08530
C1860       C  0.87969040  0.81607577  0.91485820    -0.05900
C1861       C  0.86450329  0.83892587  0.88266462     0.00030
C1862       C  0.81963295  0.82492993  0.88110845    -0.08440
C1863       C  0.80116611  0.84391502  0.83996808     0.61940
H1864       H  0.75927827  0.78654365  0.92219850     0.12640
H1865       H  0.91369728  0.82511076  0.91155019     0.12650
C1866       C  0.87153439  0.76152308  0.98762223     0.62180
F1867       F  0.75698808  0.82848459  0.84829900    -0.22990
F1868       F  0.80591375  0.83161803  0.79112246    -0.20320
F1869       F  0.82352393  0.88982243  0.84028577    -0.20000
F1870       F  0.90564571  0.76105239  0.96289994    -0.20050
F1871       F  0.84140341  0.71781881  0.00045339    -0.20370
F1872       F  0.88675808  0.78469959  0.03270582    -0.23050
C1873       C  0.69218038  0.70613736  0.91801991    -0.05880
C1874       C  0.71921124  0.69357940  0.94616571     0.00040
C1875       C  0.72407443  0.65956099  0.92354565    -0.08530
C1876       C  0.69584605  0.63463176  0.88181165    -0.05900
C1877       C  0.66732415  0.64656621  0.85586224     0.00030
C1878       C  0.67060784  0.68698282  0.87097537    -0.08440
C1879       C  0.65332544  0.71180432  0.83707487     0.61940
H1880       H  0.68895058  0.73282348  0.93147132     0.12640
H1881       H  0.69681200  0.60622030  0.86831011     0.12650
C1882       C  0.76189215  0.65282859  0.93822562     0.62180
F1883       F  0.67058486  0.75525856  0.85165886    -0.22990
F1884       F  0.60812731  0.69039606  0.84142077    -0.20320
F1885       F  0.66536263  0.71396946  0.78533259    -0.20000
F1886       F  0.75707017  0.61439779  0.91839385    -0.20050
F1887       F  0.76556996  0.65033983  0.99193301    -0.20370
F1888       F  0.79990685  0.68834511  0.91672047    -0.23050
C1889       C  0.79442149  0.98508123  0.56277309    -0.05880
C1890       C  0.79885528  0.02078376  0.53071766     0.00040
C1891       C  0.84147182  0.55855055  0.52320811    -0.08530
C1892       C  0.87796761  0.55596487  0.54214158    -0.05900
C1893       C  0.87314482  0.52070914  0.57609715     0.00030
C1894       C  0.82904121  0.98958653  0.59420338    -0.08440
C1895       C  0.81452002  0.96274999  0.64665669     0.61940
H1896       H  0.76260020  0.95488585  0.56709410     0.12640
H1897       H  0.91018974  0.58404060  0.53517957     0.12650
C1898       C  0.84976964  0.60273904  0.99908155     0.62180
F1899       F  0.78025381  0.96478786  0.66812718    -0.22990
F1900       F  0.84620134  0.97896273  0.68427203    -0.20320
F1901       F  0.79931368  0.91824569  0.63976307    -0.20000
F1902       F  0.87153236  0.63511049  0.53479069    -0.20050
F1903       F  0.81132333  0.60221162  0.98648516    -0.20370
F1904       F  0.87582275  0.61419847  0.95478393    -0.23050
C1905       C  0.69898876  0.56477035  0.52782686    -0.05880
C1906       C  0.72142314  0.04336481  0.54887324     0.00040
C1907       C  0.72192121  0.04021940  0.60496991    -0.08530
C1908       C  0.69152785  0.04626788  0.63340678    -0.05900
C1909       C  0.65672539  0.54815445  0.60822882     0.00030
C1910       C  0.66222307  0.56121995  0.55374951    -0.08440
C1911       C  0.62919792  0.56835167  0.52088541     0.61940
H1912       H  0.70200319  0.57244138  0.48628923     0.12640
H1913       H  0.69005507  0.04154379  0.67560691     0.12650
C1914       C  0.74528176  0.02076764  0.63541423     0.62180
F1915       F  0.64186456  0.57925587  0.46896181    -0.22990
F1916       F  0.62516026  0.60243890  0.53890613    -0.20320
F1917       F  0.58814983  0.53043099  0.52167200    -0.20000
F1918       F  0.78968511  0.04586191  0.62478622    -0.20050
F1919       F  0.72688005  0.97721439  0.62176078    -0.20370
F1920       F  0.74037265  0.02014874  0.68914810    -0.23050
C1921       C  0.80112718  0.95186831  0.90979838    -0.05880
C1922       C  0.83308940  0.48863260  0.87894446     0.00040
C1923       C  0.83022348  0.52802556  0.87608099    -0.08530
C1924       C  0.79917255  0.53068081  0.90790256    -0.05900
C1925       C  0.77084958  0.99603380  0.94382546     0.00030
C1926       C  0.76907041  0.95442159  0.94018105    -0.08440
C1927       C  0.73146476  0.91125129  0.96370116     0.61940
H1928       H  0.80065855  0.92057679  0.91004491     0.12640
H1929       H  0.79921632  0.56168206  0.90786767     0.12650
C1930       C  0.86180659  0.56849552  0.84166297     0.62180
F1931       F  0.70747050  0.88427487  0.92356879    -0.22990
F1932       F  0.70343951  0.91817619  0.99323975    -0.20320
F1933       F  0.74713021  0.88894105  0.99495991    -0.20000
F1934       F  0.85528091  0.55810849  0.78961598    -0.20050
F1935       F  0.90472702  0.58157431  0.85500126    -0.20370
F1936       F  0.85588376  0.60444000  0.84711089    -0.23050
C1937       C  0.68662601  0.50346366  0.92553350    -0.05880
C1938       C  0.68212591  0.98980600  0.97828397     0.00040
C1939       C  0.63919629  0.97004094  0.00152951    -0.08530
C1940       C  0.60554127  0.97277499  0.97288746    -0.05900
C1941       C  0.60996437  0.98552041  0.91944691     0.00030
C1942       C  0.65094841  0.49630982  0.89411072    -0.08440
C1943       C  0.65895411  0.49630635  0.83506347     0.61940
H1944       H  0.71905673  0.52118502  0.90864403     0.12640
H1945       H  0.57365047  0.95987109  0.99069255     0.12650
C1946       C  0.62695969  0.94202309  0.55354094     0.62180
F1947       F  0.70313619  0.51476689  0.82278793    -0.22990
F1948       F  0.64471597  0.51989626  0.80498108    -0.20320
F1949       F  0.63805971  0.45322921  0.81900401    -0.20000
F1950       F  0.64975530  0.96506887  0.59523949    -0.20050
F1951       F  0.63522794  0.90760549  0.05002602    -0.20370
F1952       F  0.58312015  0.92435375  0.56654333    -0.23050
C1953       C  0.49117452  0.84310045  0.60394975    -0.05880
C1954       C  0.98048800  0.87247148  0.57707972     0.00040
C1955       C  0.97776754  0.87171227  0.52222016    -0.08530
C1956       C  0.98089826  0.83816969  0.49769393    -0.05900
C1957       C  0.99581995  0.81088276  0.52320354     0.00030
C1958       C  0.50575337  0.81844717  0.57792884    -0.08440
C1959       C  0.53915806  0.81223090  0.60976116     0.61940
H1960       H  0.49527123  0.84491432  0.64610908     0.12640
H1961       H  0.97385393  0.83528833  0.45659714     0.12650
C1962       C  0.96925211  0.90394942  0.48935977     0.62180
F1963       F  0.56651816  0.85031640  0.63634676    -0.22990
F1964       F  0.56625069  0.80600791  0.57887408    -0.20320
F1965       F  0.51812411  0.77732763  0.64670078    -0.20000
F1966       F  0.00027905  0.94759715  0.49825523    -0.20050
F1967       F  0.92817821  0.89633588  0.50165744    -0.20370
F1968       F  0.97118946  0.89888281  0.43649492    -0.23050
C1969       C  0.95013102  0.70163181  0.58763999    -0.05880
C1970       C  0.99136280  0.72156990  0.56105137     0.00040
C1971       C  0.52305342  0.71232354  0.58357454    -0.08530
C1972       C  0.51283919  0.68259267  0.62740704    -0.05900
C1973       C  0.97147832  0.66003301  0.65210808     0.00030
C1974       C  0.93967294  0.67088387  0.63266413    -0.08440
C1975       C  0.89546048  0.65050331  0.65965871     0.61940
H1976       H  0.92544984  0.70835752  0.57129117     0.12640
H1977       H  0.53780902  0.67496351  0.64062314     0.12650
C1978       C  0.56774178  0.72946352  0.56013444     0.62180
F1979       F  0.87019754  0.66730126  0.63811667    -0.22990
F1980       F  0.90152888  0.65971622  0.71212551    -0.20320
F1981       F  0.87277920  0.60485109  0.65516447    -0.20000
F1982       F  0.57930607  0.76130397  0.52055713    -0.20050
F1983       F  0.56812055  0.69370790  0.53972682    -0.20370
F1984       F  0.59831362  0.74915047  0.59925176    -0.23050
C1985       C  0.98092748  0.77964222  0.89088621    -0.05880
C1986       C  0.51299000  0.79851511  0.93017648     0.00040
C1987       C  0.55100280  0.84051528  0.91706871    -0.08530
C1988       C  0.55282374  0.86452038  0.87041997    -0.05900
C1989       C  0.51919149  0.84873572  0.83371045     0.00030
C1990       C  0.48381488  0.80349473  0.84238898    -0.08540
C1991       C  0.94837472  0.78017344  0.80196913     0.61940
H1992       H  0.95232853  0.74711048  0.89947906     0.12640
H1993       H  0.57914607  0.89840099  0.86574986     0.12650
C1994       C  0.58556968  0.86605036  0.95638333     0.62180
F1995       F  0.92639101  0.73429243  0.81104545    -0.22990
F1996       F  0.46699253  0.78966022  0.75240319    -0.20320
F1997       F  0.91790583  0.79386330  0.80383031    -0.20000
F1998       F  0.59399813  0.83991555  0.99092146    -0.20050
F1999       F  0.56912010  0.88666388  0.48366743    -0.20370
F2000       F  0.62505425  0.89715984  0.93256524    -0.23050
C2001       C  0.98094305  0.66051696  0.98628922    -0.05880
C2002       C  0.49978817  0.70550056  0.96608680     0.00040
C2003       C  0.52129840  0.71401102  0.91578592    -0.08530
C2004       C  0.51147390  0.67740347  0.88610250    -0.05900
C2005       C  0.49987141  0.63562810  0.91046343     0.00030
C2006       C  0.98812015  0.62887150  0.96355368    -0.08440
C2007       C  0.98737734  0.59166500  0.99770512     0.61940
H2008       H  0.96407036  0.65057772  0.02325468     0.12640
H2009       H  0.52173068  0.68430871  0.84532316     0.12650
C2010       C  0.56257894  0.75574901  0.89495009     0.62180
F2011       F  0.98694441  0.59929537  0.05013942    -0.22990
F2012       F  0.02509039  0.58996103  0.98918899    -0.20320
F2013       F  0.95072812  0.55122824  0.98671594    -0.20000
F2014       F  0.58348607  0.78638269  0.93126325    -0.20050
F2015       F  0.55326151  0.77436615  0.85112949    -0.20370
F2016       F  0.59329652  0.74508226  0.88034618    -0.23050
loop_ 
_geom_bond_atom_site_label_1 
_geom_bond_atom_site_label_2 
_geom_bond_distance 
_geom_bond_site_symmetry_2 
_ccdc_geom_bond_type 
C1          C206   1.542       .  S
C1         C1498   1.564   1_554  S
C1         C1262   1.405   1_554  D
C2          C222   1.537       .  S
C2         C1453   1.556   1_455  S
C2         C1261   1.405   1_455  D
C3          C174   1.514       .  S
C3          C394   1.558       .  S
C3            C4   1.413       .  D
C4          C161   1.538       .  S
C4          C378   1.478       .  S
C5          C110   1.565       .  S
C5          C330   1.495       .  S
C5            C6   1.392       .  D
C6           C94   1.488       .  S
C6          C314   1.558       .  S
O7           C18   1.277       .  A
O7          Eu43   2.375       .  S
O8           C19   1.272       .  A
O8          Eu42   2.390       .  S
O9           C20   1.305       .  A
O9          Eu15   2.549       .  S
O10          C21   1.327       .  A
O10       Eu1023   2.673   1_455  S
O11          C21   1.253       .  A
O11         Eu45   2.320   1_565  S
O12          C20   1.295       .  A
O12         Eu44   2.489   1_565  S
O13          C19   1.286       .  A
O13        Eu519   2.449       .  S
O14        C1026   1.297       .  A
O14         Eu15   2.500   1_545  S
Eu15       O1018   2.673       .  S
Eu15        O517   2.449       .  S
Eu15         O17   2.392   1_565  S
Eu15       O1033   2.315   1_565  S
Eu15        O520   2.362       .  S
Eu15        O527   2.346       .  S
O16         Eu42   2.348       .  S
O16        Eu519   2.362       .  S
O16       Eu1557   2.401       .  S
O17         Eu44   2.382       .  S
O17       Eu1051   2.399       .  S
C18        O1022   1.297   1_455  A
C18         C241   1.493   1_455  S
C19          C97   1.449       .  S
C20         C158   1.524       .  S
C21         C681   1.515       .  S
H22          O23   0.948       .  S
O23         Eu42   2.321       .  S
O23        Eu519   2.346       .  S
O23        Eu548   2.319       .  S
H24          O25   0.963       .  S
O25         Eu43   2.367       .  S
O25         Eu45   2.406       .  S
O25       Eu1023   2.315   1_445  S
O26          C49   1.281       .  A
O26         Eu42   2.408       .  S
O27          C50   1.284       .  A
O27         Eu43   2.432       .  S
O28          C51   1.315       .  A
O28        Eu548   2.684       .  S
O29          C52   1.311       .  A
O29        Eu549   2.569       .  S
O30          C53   1.304       .  A
O30         Eu45   2.600       .  S
O31          C54   1.314       .  A
O31         Eu44   2.610       .  S
O32          C55   1.323       .  A
O32       Eu1054   2.645       .  S
O33          C56   1.287       .  A
O33         Eu46   2.444       .  S
O34          C55   1.251       .  A
O34         Eu44   2.311       .  S
O35          C56   1.305       .  A
O35         Eu45   2.505       .  S
O36          C51   1.270       .  A
O36         Eu42   2.390       .  S
O37        C1062   1.292   1_455  A
O37         Eu43   2.460       .  S
O38          C53   1.287       .  A
O38         Eu43   2.461       .  S
O39        C1060   1.275       .  A
O39         Eu42   2.412       .  S
O40        C1057   1.296       .  A
O40        Eu550   2.498   1_655  S
O41          C50   1.302       .  A
O41         Eu46   2.507       .  S
Eu42         O48   2.355       .  S
Eu42       O1068   2.341       .  S
Eu43         O47   2.334       .  S
Eu43         O58   2.358   1_455  S
Eu43       O1025   2.399   1_455  S
Eu44        O532   2.684   1_545  S
Eu44        O527   2.319   1_545  S
Eu44       O1066   2.379       .  S
Eu44        O552   2.357   1_545  S
Eu45        O533   2.569   1_545  S
Eu45         O47   2.330       .  S
Eu45       O1528   2.401   1_445  S
Eu45        O564   2.379   1_545  S
Eu46       O1040   2.645   1_455  S
Eu46        O544   2.498   1_445  S
Eu46         O47   2.369       .  S
Eu46         O58   2.318   1_455  S
Eu46        O564   2.412   1_545  S
Eu46       O1560   2.366   1_445  S
O48        Eu548   2.357       .  S
O48       Eu1558   2.366       .  S
C49        O1048   1.296       .  A
C49         C190   1.490       .  S
C50          C81   1.476       .  S
C51          C65   1.558       .  S
C52        O1047   1.275   1_455  A
C52         C225   1.526       .  S
C53         C113   1.538       .  S
C54        O1045   1.292       .  A
C54         C209   1.534       .  S
C55         C129   1.489       .  S
C56         C145   1.507       .  S
H57          O58   0.963       .  S
O58       Eu1052   2.379       .  S
H59          O60   0.965       .  S
O60       Eu1050   2.341   1_455  S
O60        Eu549   2.379       .  S
O60        Eu550   2.412       .  S
C61          C62   1.411       .  A
C61          C66   1.418       .  A
C61          H68   1.080       .  S
C62         C258   1.558       .  S
C62          C63   1.432       .  A
C63          C64   1.426       .  A
C63          C70   1.511       .  S
C64          C65   1.421       .  A
C64          H69   1.084       .  S
C65          C66   1.436       .  A
C66          C67   1.506       .  S
C67          F71   1.384   1_554  S
C67          F72   1.364       .  S
C67          F73   1.367       .  S
C70          F74   1.367       .  S
C70          F75   1.378       .  S
C70          F76   1.385       .  S
C77          C78   1.413       .  A
C77          C82   1.409       .  A
C77          H84   1.075       .  S
C78         C257   1.495   1_554  S
C78          C79   1.423       .  A
C79          C80   1.397       .  A
C79         C338   1.517       .  S
C80          C81   1.371       .  A
C80          H85   1.044       .  S
C81          C82   1.401       .  A
C82          C83   1.514       .  S
C83          F87   1.381       .  S
C83          F88   1.374       .  S
C83          F89   1.383       .  S
C86         C331   1.517       .  S
C86          F90   1.382       .  S
C86          F91   1.369       .  S
C86          F92   1.383       .  S
C93          C94   1.409       .  A
C93          C98   1.393       .  A
C93         H100   1.070       .  S
C94          C95   1.416       .  A
C95          C96   1.399       .  A
C95         C102   1.513       .  S
C96          C97   1.394       .  A
C96         H101   1.079       .  S
C97          C98   1.400       .  A
C98          C99   1.518       .  S
C99         F103   1.383       .  S
C99         F104   1.382       .  S
C99         F105   1.378       .  S
C102        F106   1.379       .  S
C102        F107   1.368       .  S
C102        F108   1.380       .  S
C109        C110   1.408       .  A
C109        C114   1.416       .  A
C109        H116   1.067       .  S
C110        C111   1.433       .  A
C111        C112   1.436       .  A
C111        C118   1.505       .  S
C112        C113   1.412       .  A
C112        H117   1.082       .  S
C113        C114   1.427       .  A
C114        C115   1.518       .  S
C115        F119   1.384       .  S
C115        F120   1.379       .  S
C115        F121   1.384       .  S
C118        F122   1.384       .  S
C118        F123   1.379       .  S
C118        F124   1.379       .  S
C125        C126   1.393       .  A
C125        C130   1.393       .  A
C125        H132   1.083       .  S
C126        C256   1.478   1_554  S
C126        C631   1.416       .  A
C127        C128   1.410       .  A
C127        C630   1.416       .  A
C127        C386   1.511   1_554  S
C128        C129   1.404       .  A
C128        H133   1.068       .  S
C129        C634   1.440   1_545  A
C130        C633   1.440       .  A
C130        C131   1.530       .  S
C131        F135   1.374       .  S
C131        F136   1.366       .  S
C131        F137   1.380       .  S
C134        C379   1.511       .  S
C134        F139   1.379       .  S
C134        F140   1.381       .  S
C134        F390   1.377       .  S
F138        C386   1.377   1_554  S
C141        C146   1.414       .  A
C141        C646   1.418       .  A
C141        H148   1.075   1_554  S
C142        C255   1.558       .  S
C142        C143   1.433       .  A
C142        C645   1.418       .  A
C143        C144   1.415       .  A
C143        C150   1.493       .  S
C144        C649   1.404       .  A
C144        H149   1.081       .  S
C145        C146   1.428       .  A
C145        C648   1.404       .  A
C146        C147   1.536       .  S
C147        F151   1.380   1_554  S
C147        F152   1.370       .  S
C147        F153   1.377       .  S
C150        F154   1.376       .  S
C150        F155   1.376       .  S
C150        F156   1.386       .  S
C157        C162   1.427       .  A
C157        C662   1.412       .  A
C157        H164   1.082       .  S
C158        C159   1.424   1_565  A
C158        C661   1.412       .  A
C159        C160   1.421       .  A
C159        C166   1.521       .  S
C160        C665   1.411   1_545  A
C160        H165   1.079       .  S
C161        C162   1.427       .  A
C161        C664   1.411       .  A
C162        C163   1.514       .  S
C163        F167   1.383       .  S
C163        F168   1.378       .  S
C163        F169   1.379       .  S
C166        F170   1.382       .  S
C166        F171   1.383       .  S
C166        F172   1.385       .  S
C173        C178   1.398   1_545  A
C173        C678   1.391   1_545  A
C173        H180   1.073       .  S
C174        C175   1.433       .  A
C174        C677   1.391       .  A
C175        C176   1.424       .  A
C175        C434   1.537       .  S
C176        C177   1.401       .  A
C176        H181   1.077       .  S
C177        C525   1.515       .  S
C177        C682   1.454       .  A
C178        C681   1.454       .  A
C178        C179   1.542       .  S
C179        F183   1.386   1_565  S
C179        F184   1.362   1_565  S
C179        F185   1.376       .  S
C182        C427   1.537       .  S
C182        F186   1.353       .  S
C182        F188   1.383       .  S
C182        F439   1.378       .  S
F187        C434   1.378       .  S
C189        C194   1.403   1_655  A
C189       C1198   1.403       .  A
C189        H196   1.086       .  S
C190        C191   1.405       .  A
C190       C1197   1.403       .  A
C191        C192   1.408   1_554  A
C191        C198   1.513   1_554  S
C192        C193   1.426   1_556  A
C192        H197   1.073       .  S
C193       C1262   1.556   1_554  S
C193       C1202   1.441       .  A
C194       C1201   1.441   1_455  A
C194        C195   1.517       .  S
C195        F199   1.387       .  S
C195        F200   1.358       .  S
C195        F201   1.382       .  S
C198        F202   1.378       .  S
C198        F203   1.374   1_556  S
C198        F204   1.380       .  S
C205        C206   1.423       .  A
C205        C210   1.446       .  A
C205        H212   1.082       .  S
C206       C1215   1.416       .  A
C207        C208   1.404       .  A
C207       C1214   1.416   1_455  A
C207        C214   1.498       .  S
C208       C1217   1.402   1_455  A
C208        H213   1.085       .  S
C209        C210   1.428       .  A
C209       C1216   1.402       .  A
C210        C211   1.510       .  S
C211        F215   1.384       .  S
C211        F216   1.383       .  S
C211        F217   1.380       .  S
C214        F218   1.363       .  S
C214        F219   1.382       .  S
C214        F220   1.383       .  S
C221       C1230   1.411       .  A
C221       C1234   1.431       .  A
C221        H228   1.082       .  S
C222        C223   1.423       .  A
C222       C1229   1.411   1_455  A
C223        C224   1.403       .  A
C223        C230   1.495       .  S
C224        C225   1.393       .  A
C224        H229   1.070       .  S
C225        C226   1.437   1_455  A
C226       C1229   1.431       .  A
C226       C1235   1.516       .  S
C227       C1234   1.516       .  S
C227        F231   1.385       .  S
C227        F233   1.382       .  S
C227       F1240   1.384       .  S
C230        F234   1.370       .  S
C230        F236   1.384       .  S
C230        F487   1.354       .  S
F232       C1235   1.384       .  S
F235        C482   1.354       .  S
C237        C242   1.406       .  A
C237       C1246   1.426       .  A
C237        H244   1.071       .  S
C238       C1261   1.564       .  S
C238        C239   1.445   1_655  A
C238       C1245   1.426       .  A
C239        C240   1.402       .  A
C239        C246   1.522       .  S
C240        C241   1.408   1_455  A
C240        H245   1.085       .  S
C241       C1250   1.400       .  A
C242       C1249   1.400       .  A
C242        C243   1.513       .  S
C243        F247   1.383       .  S
C243        F248   1.384       .  S
C243        F249   1.383       .  S
C246        F250   1.351       .  S
C246        F251   1.381       .  S
C246        F252   1.376       .  S
C253        C458   1.542       .  S
C253       C1246   1.564       .  S
C253       C1010   1.405       .  D
C254       C1201   1.556   1_456  S
C254        C474   1.537       .  S
C254       C1009   1.405   1_456  D
C255        C426   1.514   1_554  S
C255        C256   1.413   1_554  D
C256        C413   1.538       .  S
C257        C362   1.565       .  S
C257        C258   1.392   1_556  D
C258        C346   1.488   1_554  S
O259        C270   1.277       .  A
O259       Eu295   2.375       .  S
O260        C271   1.272       .  A
O260       Eu294   2.390       .  S
O261        C272   1.305       .  A
O261       Eu267   2.549       .  S
O262        C273   1.327       .  A
O262      Eu1275   2.673   1_455  S
O263        C273   1.253       .  A
O263       Eu297   2.320   1_565  S
O264        C272   1.295       .  A
O264       Eu296   2.489   1_565  S
O265        C271   1.286       .  A
O265       Eu771   2.449       .  S
O266       C1278   1.297       .  A
O266       Eu267   2.500   1_545  S
Eu267      O1270   2.673       .  S
Eu267       O769   2.449       .  S
Eu267      O1285   2.314   1_565  S
Eu267       O269   2.392   1_565  S
Eu267       O772   2.362       .  S
Eu267       O779   2.346       .  S
O268       Eu771   2.362       .  S
O268      Eu1809   2.401       .  S
O268       Eu294   2.348       .  S
O269      Eu1303   2.399       .  S
O269       Eu296   2.382       .  S
C270       O1274   1.297   1_455  A
C270        C493   1.493   1_455  S
C271        C349   1.449       .  S
C272        C410   1.524       .  S
C273        C933   1.515       .  S
H274        O275   0.948       .  S
O275       Eu771   2.346       .  S
O275       Eu800   2.319       .  S
O275       Eu294   2.321       .  S
H276        O277   0.963       .  S
O277      Eu1275   2.315   1_445  S
O277       Eu295   2.367       .  S
O277       Eu297   2.406       .  S
O278        C301   1.281       .  A
O278       Eu294   2.408       .  S
O279        C302   1.284       .  A
O279       Eu295   2.432       .  S
O280        C303   1.315       .  A
O280       Eu800   2.684       .  S
O281        C304   1.311       .  A
O281       Eu801   2.569       .  S
O282        C305   1.304       .  A
O282       Eu297   2.600       .  S
O283        C306   1.314       .  A
O283       Eu296   2.610       .  S
O284        C307   1.323       .  A
O284      Eu1306   2.645       .  S
O285        C308   1.287       .  A
O285       Eu298   2.444       .  S
O286        C307   1.251       .  A
O286       Eu296   2.311       .  S
O287        C308   1.305       .  A
O287       Eu297   2.505       .  S
O288        C303   1.270       .  A
O288       Eu294   2.390       .  S
O289       C1314   1.292   1_455  A
O289       Eu295   2.460       .  S
O290        C305   1.287       .  A
O290       Eu295   2.461       .  S
O291       C1312   1.275       .  A
O291       Eu294   2.412       .  S
O292       C1309   1.296       .  A
O292       Eu802   2.498   1_655  S
O293        C302   1.302       .  A
O293       Eu298   2.507       .  S
Eu294      O1320   2.341       .  S
Eu294       O300   2.355       .  S
Eu295      O1277   2.399   1_455  S
Eu295       O299   2.334       .  S
Eu295       O310   2.358   1_455  S
Eu296       O784   2.684   1_545  S
Eu296       O779   2.319   1_545  S
Eu296      O1318   2.379       .  S
Eu296       O804   2.357   1_545  S
Eu297       O785   2.569   1_545  S
Eu297      O1780   2.401   1_445  S
Eu297       O299   2.330       .  S
Eu297       O816   2.379   1_545  S
Eu298      O1292   2.645   1_455  S
Eu298       O796   2.498   1_445  S
Eu298       O299   2.369       .  S
Eu298       O310   2.318   1_455  S
Eu298       O816   2.412   1_545  S
Eu298      O1812   2.366   1_445  S
O300       Eu800   2.357       .  S
O300      Eu1810   2.366       .  S
C301       O1300   1.296       .  A
C301        C442   1.490       .  S
C302        C333   1.476       .  S
C303        C317   1.558       .  S
C304       O1299   1.275   1_455  A
C304        C477   1.526       .  S
C305        C365   1.538       .  S
C306       O1297   1.292       .  A
C306        C461   1.534       .  S
C307        C381   1.489       .  S
C308        C397   1.507       .  S
H309        O310   0.963       .  S
O310      Eu1304   2.379       .  S
H311        O312   0.965       .  S
O312      Eu1302   2.341   1_455  S
O312       Eu801   2.379       .  S
O312       Eu802   2.412       .  S
C313        C314   1.411       .  A
C313        C318   1.418       .  A
C313        H320   1.080       .  S
C314        C315   1.432       .  A
C315        C316   1.426       .  A
C315        C322   1.511       .  S
C316        C317   1.421       .  A
C316        H321   1.084       .  S
C317        C318   1.436       .  A
C318        C319   1.506       .  S
C319        F323   1.384       .  S
C319        F324   1.364       .  S
C319        F325   1.367       .  S
C322        F326   1.367       .  S
C322        F327   1.378       .  S
C322        F328   1.385       .  S
C329        C330   1.413       .  A
C329        C334   1.409       .  A
C329        H336   1.075       .  S
C330        C331   1.423       .  A
C331        C332   1.397       .  A
C332        C333   1.371       .  A
C332        H337   1.044       .  S
C333        C334   1.401       .  A
C334        C335   1.514       .  S
C335        F339   1.381       .  S
C335        F340   1.374       .  S
C335        F341   1.383       .  S
C338        F342   1.382   1_554  S
C338        F343   1.369   1_554  S
C338        F344   1.383       .  S
C345        C346   1.409       .  A
C345        C350   1.393       .  A
C345        H352   1.070       .  S
C346        C347   1.416       .  A
C347        C348   1.399       .  A
C347        C354   1.513       .  S
C348        C349   1.394       .  A
C348        H353   1.079       .  S
C349        C350   1.400       .  A
C350        C351   1.518       .  S
C351        F355   1.383       .  S
C351        F356   1.382       .  S
C351        F357   1.378       .  S
C354        F358   1.379       .  S
C354        F359   1.368   1_556  S
C354        F360   1.380   1_556  S
C361        C362   1.408       .  A
C361        C366   1.416       .  A
C361        H368   1.067       .  S
C362        C363   1.433       .  A
C363        C364   1.436       .  A
C363        C370   1.505       .  S
C364        C365   1.412       .  A
C364        H369   1.082       .  S
C365        C366   1.427       .  A
C366        C367   1.518       .  S
C367        F371   1.384       .  S
C367        F372   1.379       .  S
C367        F373   1.384       .  S
C370        F374   1.384       .  S
C370        F375   1.379       .  S
C370        F376   1.379       .  S
C377        C378   1.393       .  A
C377        C382   1.393       .  A
C377        H384   1.083       .  S
C378        C883   1.416       .  A
C379        C882   1.416       .  A
C379        C380   1.410       .  A
C380        C381   1.404       .  A
C380        H385   1.068       .  S
C381        C886   1.440   1_545  A
C382        C885   1.440       .  A
C382        C383   1.530       .  S
C383        F387   1.374       .  S
C383        F388   1.366       .  S
C383        F389   1.380       .  S
C386        F391   1.379       .  S
C386        F392   1.381       .  S
C393        C898   1.418       .  A
C393        C398   1.414       .  A
C393        H400   1.075       .  S
C394        C897   1.418       .  A
C394        C395   1.433       .  A
C395        C396   1.415       .  A
C395        C402   1.493       .  S
C396        C901   1.404       .  A
C396        H401   1.081       .  S
C397        C900   1.404       .  A
C397        C398   1.428       .  A
C398        C399   1.536       .  S
C399        F403   1.380       .  S
C399        F404   1.370       .  S
C399        F405   1.377       .  S
C402        F406   1.376       .  S
C402        F407   1.376       .  S
C402        F408   1.386       .  S
C409        C914   1.412       .  A
C409        C414   1.427       .  A
C409        H416   1.082       .  S
C410        C913   1.412       .  A
C410        C411   1.424   1_565  A
C411        C412   1.421       .  A
C411        C418   1.521       .  S
C412        C917   1.411   1_545  A
C412        H417   1.079       .  S
C413        C916   1.411       .  A
C413        C414   1.427       .  A
C414        C415   1.514       .  S
C415        F419   1.383       .  S
C415        F420   1.378       .  S
C415        F421   1.379       .  S
C418        F422   1.382       .  S
C418        F423   1.383       .  S
C418        F424   1.385       .  S
C425        C930   1.391   1_545  A
C425        C430   1.398   1_545  A
C425        H432   1.073       .  S
C426        C929   1.391       .  A
C426        C427   1.433   1_556  A
C427        C428   1.424   1_554  A
C428        C429   1.401       .  A
C428        H433   1.077       .  S
C429        C777   1.515       .  S
C429        C934   1.454       .  A
C430        C933   1.454       .  A
C430        C431   1.542       .  S
C431        F435   1.386   1_565  S
C431        F436   1.362   1_565  S
C431        F437   1.376       .  S
C434        F438   1.353       .  S
C434        F440   1.383       .  S
C441       C1450   1.403       .  A
C441        C446   1.403   1_655  A
C441        H448   1.086       .  S
C442       C1449   1.403       .  A
C442        C443   1.405       .  A
C443        C444   1.408       .  A
C443        C450   1.513       .  S
C444        C445   1.426       .  A
C444        H449   1.073       .  S
C445       C1010   1.556       .  S
C445       C1454   1.441       .  A
C446       C1453   1.441   1_455  A
C446        C447   1.517       .  S
C447        F451   1.387       .  S
C447        F452   1.358       .  S
C447        F453   1.382       .  S
C450        F454   1.378       .  S
C450        F455   1.374       .  S
C450        F456   1.380       .  S
C457        C458   1.423       .  A
C457        C462   1.446       .  A
C457        H464   1.082       .  S
C458       C1467   1.416       .  A
C459       C1466   1.416   1_455  A
C459        C460   1.404       .  A
C459        C466   1.498       .  S
C460       C1469   1.402   1_455  A
C460        H465   1.085       .  S
C461       C1468   1.402       .  A
C461        C462   1.428       .  A
C462        C463   1.510       .  S
C463        F467   1.384       .  S
C463        F468   1.383       .  S
C463        F469   1.380       .  S
C466        F470   1.363       .  S
C466        F471   1.382       .  S
C466        F472   1.383       .  S
C473       C1482   1.411       .  A
C473       C1486   1.431       .  A
C473        H480   1.082       .  S
C474       C1481   1.411   1_455  A
C474        C475   1.423       .  A
C475        C476   1.403       .  A
C475        C482   1.495       .  S
C476        C477   1.393       .  A
C476        H481   1.070       .  S
C477        C478   1.437   1_455  A
C478       C1481   1.431       .  A
C478       C1487   1.516       .  S
C479       C1486   1.516       .  S
C479        F483   1.385       .  S
C479       F1492   1.384       .  S
C479        F485   1.382       .  S
C482        F486   1.370       .  S
C482        F488   1.384       .  S
F484       C1487   1.384       .  S
C489       C1498   1.426       .  A
C489        C494   1.406       .  A
C489        H496   1.071   1_556  S
C490       C1009   1.564   1_556  S
C490       C1497   1.426       .  A
C490        C491   1.445   1_655  A
C491        C492   1.402       .  A
C491        C498   1.522       .  S
C492        C493   1.408   1_455  A
C492        H497   1.085       .  S
C493       C1502   1.400       .  A
C494       C1501   1.400       .  A
C494        C495   1.513       .  S
C495        F499   1.383   1_556  S
C495        F500   1.384       .  S
C495        F501   1.383       .  S
C498        F502   1.351       .  S
C498        F503   1.381       .  S
C498        F504   1.376       .  S
C505        C710   1.542       .  S
C505       C2002   1.564   1_554  S
C505       C1766   1.405   1_554  D
C506       C1957   1.556   1_455  S
C506        C726   1.537       .  S
C506       C1765   1.405   1_455  D
C507        C898   1.558       .  S
C507        C678   1.514   1_545  S
C507        C508   1.413       .  D
C508        C882   1.478       .  S
C508        C665   1.538   1_545  S
C509        C834   1.495       .  S
C509        C614   1.565       .  S
C509        C510   1.392       .  D
C510        C818   1.558       .  S
C510        C598   1.488       .  S
O511        C522   1.277       .  A
O511       Eu547   2.375       .  S
O512        C523   1.272       .  A
O512       Eu546   2.390       .  S
O513        C524   1.305       .  A
O513       Eu519   2.549       .  S
O514        C525   1.327       .  A
O514      Eu1527   2.673   1_455  S
O515        C525   1.253       .  A
O515       Eu549   2.320       .  S
O516        C524   1.295       .  A
O516       Eu548   2.489       .  S
O517        C523   1.286       .  A
O518       C1530   1.297       .  A
O518       Eu519   2.500       .  S
Eu519      O1522   2.673       .  S
Eu519      O1537   2.315       .  S
Eu519       O521   2.392       .  S
O520      Eu1053   2.401   1_565  S
O520       Eu546   2.348       .  S
O521      Eu1555   2.399       .  S
O521       Eu548   2.382       .  S
C522       O1526   1.297   1_455  A
C522        C745   1.493   1_455  S
C523        C601   1.449       .  S
C524        C662   1.524       .  S
H526        O527   0.948   1_545  S
O527       Eu546   2.321       .  S
H528        O529   0.963       .  S
O529      Eu1527   2.315   1_455  S
O529       Eu547   2.367       .  S
O529       Eu549   2.406       .  S
O530        C553   1.281       .  A
O530       Eu546   2.408       .  S
O531        C554   1.284       .  A
O531       Eu547   2.432       .  S
O532        C555   1.315       .  A
O533        C556   1.311       .  A
O534        C557   1.304       .  A
O534       Eu549   2.600       .  S
O535        C558   1.314       .  A
O535       Eu548   2.610       .  S
O536        C559   1.323       .  A
O536      Eu1558   2.645       .  S
O537        C560   1.287       .  A
O537       Eu550   2.444       .  S
O538        C559   1.251       .  A
O538       Eu548   2.311       .  S
O539        C560   1.305       .  A
O539       Eu549   2.505       .  S
O540        C555   1.270       .  A
O540       Eu546   2.390       .  S
O541       C1566   1.292   1_455  A
O541       Eu547   2.460       .  S
O542        C557   1.287       .  A
O542       Eu547   2.461       .  S
O543       C1564   1.275       .  A
O543       Eu546   2.412       .  S
O544       C1561   1.296       .  A
O545        C554   1.302       .  A
O545       Eu550   2.507       .  S
Eu546      O1572   2.341       .  S
Eu546       O552   2.355       .  S
Eu547      O1529   2.399   1_455  S
Eu547       O551   2.334       .  S
Eu547       O562   2.358   1_455  S
Eu548      O1570   2.379       .  S
Eu549      O1024   2.401   1_455  S
Eu549       O551   2.330       .  S
Eu550      O1544   2.645   1_455  S
Eu550       O551   2.369       .  S
Eu550       O562   2.318   1_455  S
Eu550      O1056   2.366   1_455  S
O552      Eu1054   2.366   1_565  S
C553       O1552   1.296       .  A
C553        C694   1.490       .  S
C554        C585   1.476       .  S
C555        C569   1.558       .  S
C556       O1551   1.275   1_455  A
C556        C729   1.526       .  S
C557        C617   1.538       .  S
C558       O1549   1.292       .  A
C558        C713   1.534       .  S
C559        C633   1.489       .  S
C560        C649   1.507       .  S
H561        O562   0.963       .  S
O562      Eu1556   2.379       .  S
H563        O564   0.965       .  S
O564      Eu1554   2.341   1_455  S
C565        C566   1.411       .  A
C565        C570   1.418       .  A
C565        H572   1.080       .  S
C566        C762   1.558       .  S
C566        C567   1.432       .  A
C567        C568   1.426       .  A
C567        C574   1.511       .  S
C568        C569   1.421       .  A
C568        H573   1.084       .  S
C569        C570   1.436       .  A
C570        C571   1.506       .  S
C571        F575   1.384   1_554  S
C571        F576   1.364       .  S
C571        F577   1.367       .  S
C574        F578   1.367       .  S
C574        F579   1.378       .  S
C574        F580   1.385       .  S
C581        C582   1.413       .  A
C581        C586   1.409       .  A
C581        H588   1.075       .  S
C582        C761   1.495   1_554  S
C582        C583   1.423       .  A
C583        C584   1.397       .  A
C583        C842   1.517       .  S
C584        C585   1.371       .  A
C584        H589   1.044       .  S
C585        C586   1.401       .  A
C586        C587   1.514       .  S
C587        F591   1.381       .  S
C587        F592   1.374       .  S
C587        F593   1.383       .  S
C590        C835   1.517       .  S
C590        F594   1.382       .  S
C590        F595   1.369       .  S
C590        F596   1.383       .  S
C597        C598   1.409       .  A
C597        C602   1.393       .  A
C597        H604   1.070       .  S
C598        C599   1.416       .  A
C599        C600   1.399       .  A
C599        C606   1.513       .  S
C600        C601   1.394       .  A
C600        H605   1.079       .  S
C601        C602   1.400       .  A
C602        C603   1.518       .  S
C603        F607   1.383       .  S
C603        F608   1.382       .  S
C603        F609   1.378       .  S
C606        F610   1.379       .  S
C606        F611   1.368       .  S
C606        F612   1.380       .  S
C613        C614   1.408       .  A
C613        C618   1.416       .  A
C613        H620   1.067       .  S
C614        C615   1.433       .  A
C615        C616   1.436       .  A
C615        C622   1.505       .  S
C616        C617   1.412       .  A
C616        H621   1.082       .  S
C617        C618   1.427       .  A
C618        C619   1.518       .  S
C619        F623   1.384       .  S
C619        F624   1.379       .  S
C619        F625   1.384       .  S
C622        F626   1.384       .  S
C622        F627   1.379       .  S
C622        F628   1.379       .  S
C629        C630   1.393   1_565  A
C629        C634   1.393       .  A
C629        H636   1.083       .  S
C630        C760   1.478   1_554  S
C631        C632   1.410       .  A
C631        C890   1.511   1_554  S
C632        C633   1.404       .  A
C632        H637   1.068       .  S
C634        C635   1.530       .  S
C635        F639   1.374       .  S
C635        F640   1.366       .  S
C635        F641   1.380       .  S
C638        C883   1.511       .  S
C638        F894   1.377       .  S
C638        F643   1.379       .  S
C638        F644   1.381       .  S
F642        C890   1.377   1_554  S
C645        C650   1.414       .  A
C645        H652   1.075   1_554  S
C646        C759   1.558       .  S
C646        C647   1.433       .  A
C647        C648   1.415       .  A
C647        C654   1.493       .  S
C648        H653   1.081       .  S
C649        C650   1.428       .  A
C650        C651   1.536       .  S
C651        F655   1.380   1_554  S
C651        F656   1.370       .  S
C651        F657   1.377       .  S
C654        F658   1.376       .  S
C654        F659   1.376   1_545  S
C654        F660   1.386       .  S
C661        C666   1.427       .  A
C661        H668   1.082       .  S
C662        C663   1.424       .  A
C663        C664   1.421       .  A
C663        C670   1.521       .  S
C664        H669   1.079       .  S
C665        C666   1.427       .  A
C666        C667   1.514       .  S
C667        F671   1.383       .  S
C667        F672   1.378       .  S
C667        F673   1.379       .  S
C670        F674   1.382       .  S
C670        F675   1.383       .  S
C670        F676   1.385       .  S
C677        C682   1.398       .  A
C677        H684   1.073       .  S
C678        C679   1.433       .  A
C679        C680   1.424       .  A
C679        C938   1.537       .  S
C680        C681   1.401       .  A
C680        H685   1.077       .  S
C682        C683   1.542       .  S
C683        F687   1.386       .  S
C683        F688   1.362       .  S
C683        F689   1.376       .  S
C686        C931   1.537       .  S
C686        F690   1.353       .  S
C686        F943   1.378       .  S
C686        F692   1.383       .  S
F691        C938   1.378       .  S
C693       C1702   1.403       .  A
C693        C698   1.403   1_655  A
C693        H700   1.086       .  S
C694       C1701   1.403       .  A
C694        C695   1.405       .  A
C695        C696   1.408   1_554  A
C695        C702   1.513   1_554  S
C696        C697   1.426   1_556  A
C696        H701   1.073       .  S
C697       C1766   1.556   1_554  S
C697       C1706   1.441       .  A
C698       C1705   1.441   1_455  A
C698        C699   1.517       .  S
C699        F703   1.387       .  S
C699        F704   1.358       .  S
C699        F705   1.382       .  S
C702        F706   1.378       .  S
C702        F707   1.374   1_556  S
C702        F708   1.380       .  S
C709        C710   1.423       .  A
C709        C714   1.446       .  A
C709        H716   1.082       .  S
C710       C1719   1.416       .  A
C711       C1718   1.416   1_455  A
C711        C712   1.404       .  A
C711        C718   1.498       .  S
C712       C1721   1.402   1_455  A
C712        H717   1.085       .  S
C713       C1720   1.402       .  A
C713        C714   1.428       .  A
C714        C715   1.510       .  S
C715        F719   1.384       .  S
C715        F720   1.383       .  S
C715        F721   1.380       .  S
C718        F722   1.363       .  S
C718        F723   1.382       .  S
C718        F724   1.383       .  S
C725       C1734   1.411       .  A
C725       C1738   1.431       .  A
C725        H732   1.082       .  S
C726       C1733   1.411   1_455  A
C726        C727   1.423       .  A
C727        C728   1.403       .  A
C727        C734   1.495       .  S
C728        C729   1.393       .  A
C728        H733   1.070       .  S
C729        C730   1.437   1_455  A
C730       C1733   1.431       .  A
C730       C1739   1.516       .  S
C731       C1738   1.516       .  S
C731        F735   1.385       .  S
C731       F1744   1.384       .  S
C731        F737   1.382       .  S
C734        F738   1.370       .  S
C734        F991   1.354       .  S
C734        F740   1.384       .  S
F736       C1739   1.384       .  S
F739        C986   1.354       .  S
C741       C1750   1.426       .  A
C741        C746   1.406       .  A
C741        H748   1.071       .  S
C742       C1765   1.564       .  S
C742       C1749   1.426       .  A
C742        C743   1.445   1_655  A
C743        C744   1.403       .  A
C743        C750   1.522       .  S
C744        C745   1.408   1_455  A
C744        H749   1.085       .  S
C745       C1754   1.400       .  A
C746       C1753   1.400       .  A
C746        C747   1.513       .  S
C747        F751   1.383       .  S
C747        F752   1.384       .  S
C747        F753   1.383       .  S
C750        F754   1.351       .  S
C750        F755   1.381       .  S
C750        F756   1.376       .  S
C757        C962   1.542       .  S
C757       C1750   1.564       .  S
C757       C1514   1.405       .  D
C758       C1705   1.556   1_456  S
C758        C978   1.537       .  S
C758       C1513   1.405   1_456  D
C759        C930   1.514   1_544  S
C759        C760   1.413   1_554  D
C760        C917   1.538   1_545  S
C761        C866   1.565       .  S
C761        C762   1.392   1_556  D
C762        C850   1.488   1_554  S
O763        C774   1.277       .  A
O763       Eu799   2.375       .  S
O764        C775   1.272       .  A
O764       Eu798   2.390       .  S
O765        C776   1.305       .  A
O765       Eu771   2.549       .  S
O766        C777   1.327       .  A
O766      Eu1779   2.673   1_455  S
O767        C777   1.253       .  A
O767       Eu801   2.320       .  S
O768        C776   1.295       .  A
O768       Eu800   2.489       .  S
O769        C775   1.286       .  A
O770       C1782   1.297       .  A
O770       Eu771   2.500       .  S
Eu771      O1774   2.673       .  S
Eu771      O1789   2.315       .  S
Eu771       O773   2.392       .  S
O772      Eu1305   2.401   1_565  S
O772       Eu798   2.348       .  S
O773      Eu1807   2.399       .  S
O773       Eu800   2.382       .  S
C774       O1778   1.297   1_455  A
C774        C997   1.493   1_455  S
C775        C853   1.449       .  S
C776        C914   1.524       .  S
H778        O779   0.948   1_545  S
O779       Eu798   2.321       .  S
H780        O781   0.963       .  S
O781      Eu1779   2.315   1_455  S
O781       Eu799   2.367       .  S
O781       Eu801   2.406       .  S
O782        C805   1.281       .  A
O782       Eu798   2.408       .  S
O783        C806   1.284       .  A
O783       Eu799   2.432       .  S
O784        C807   1.315       .  A
O785        C808   1.311       .  A
O786        C809   1.304       .  A
O786       Eu801   2.600       .  S
O787        C810   1.314       .  A
O787       Eu800   2.610       .  S
O788        C811   1.323       .  A
O788      Eu1810   2.645       .  S
O789        C812   1.287       .  A
O789       Eu802   2.444       .  S
O790        C811   1.251       .  A
O790       Eu800   2.311       .  S
O791        C812   1.305       .  A
O791       Eu801   2.505       .  S
O792        C807   1.270       .  A
O792       Eu798   2.390       .  S
O793       C1818   1.292   1_455  A
O793       Eu799   2.460       .  S
O794        C809   1.287       .  A
O794       Eu799   2.461       .  S
O795       C1816   1.275       .  A
O795       Eu798   2.412       .  S
O796       C1813   1.296       .  A
O797        C806   1.302       .  A
O797       Eu802   2.507       .  S
Eu798      O1824   2.341       .  S
Eu798       O804   2.355       .  S
Eu799      O1781   2.399   1_455  S
Eu799       O803   2.334       .  S
Eu799       O814   2.358   1_455  S
Eu800      O1822   2.379       .  S
Eu801      O1276   2.401   1_455  S
Eu801       O803   2.330       .  S
Eu802      O1796   2.645   1_455  S
Eu802       O803   2.369       .  S
Eu802       O814   2.318   1_455  S
Eu802      O1308   2.366   1_455  S
O804      Eu1306   2.366   1_565  S
C805       O1804   1.296       .  A
C805        C946   1.490       .  S
C806        C837   1.476       .  S
C807        C821   1.558       .  S
C808       O1803   1.275   1_455  A
C808        C981   1.526       .  S
C809        C869   1.538       .  S
C810       O1801   1.292       .  A
C810        C965   1.534       .  S
C811        C885   1.489       .  S
C812        C901   1.507       .  S
H813        O814   0.963       .  S
O814      Eu1808   2.379       .  S
H815        O816   0.965       .  S
O816      Eu1806   2.341   1_455  S
C817        C818   1.411       .  A
C817        C822   1.418       .  A
C817        H824   1.080       .  S
C818        C819   1.432       .  A
C819        C820   1.426       .  A
C819        C826   1.511       .  S
C820        C821   1.421       .  A
C820        H825   1.084       .  S
C821        C822   1.436       .  A
C822        C823   1.506       .  S
C823        F827   1.384       .  S
C823        F828   1.364       .  S
C823        F829   1.367       .  S
C826        F830   1.367       .  S
C826        F831   1.378       .  S
C826        F832   1.385       .  S
C833        C834   1.413       .  A
C833        C838   1.409       .  A
C833        H840   1.075       .  S
C834        C835   1.423       .  A
C835        C836   1.397       .  A
C836        C837   1.371       .  A
C836        H841   1.044       .  S
C837        C838   1.401       .  A
C838        C839   1.514       .  S
C839        F843   1.381       .  S
C839        F844   1.374       .  S
C839        F845   1.383       .  S
C842        F846   1.382   1_554  S
C842        F847   1.369   1_554  S
C842        F848   1.383       .  S
C849        C850   1.409       .  A
C849        C854   1.393       .  A
C849        H856   1.070       .  S
C850        C851   1.416       .  A
C851        C852   1.399       .  A
C851        C858   1.513       .  S
C852        C853   1.394       .  A
C852        H857   1.079       .  S
C853        C854   1.400       .  A
C854        C855   1.518       .  S
C855        F859   1.383       .  S
C855        F860   1.382       .  S
C855        F861   1.378       .  S
C858        F862   1.379       .  S
C858        F863   1.368   1_556  S
C858        F864   1.380   1_556  S
C865        C866   1.408       .  A
C865        C870   1.416       .  A
C865        H872   1.067       .  S
C866        C867   1.433       .  A
C867        C868   1.436       .  A
C867        C874   1.505       .  S
C868        C869   1.412       .  A
C868        H873   1.082       .  S
C869        C870   1.427       .  A
C870        C871   1.518       .  S
C871        F875   1.384       .  S
C871        F876   1.379       .  S
C871        F877   1.384       .  S
C874        F878   1.384       .  S
C874        F879   1.379       .  S
C874        F880   1.379       .  S
C881        C882   1.393   1_565  A
C881        C886   1.393       .  A
C881        H888   1.083       .  S
C883        C884   1.410       .  A
C884        C885   1.404       .  A
C884        H889   1.068       .  S
C886        C887   1.530       .  S
C887        F891   1.374       .  S
C887        F892   1.366       .  S
C887        F893   1.380       .  S
C890        F895   1.379       .  S
C890        F896   1.381       .  S
C897        C902   1.414       .  A
C897        H904   1.075       .  S
C898        C899   1.433       .  A
C899        C900   1.415       .  A
C899        C906   1.493       .  S
C900        H905   1.081       .  S
C901        C902   1.428       .  A
C902        C903   1.536       .  S
C903        F907   1.380       .  S
C903        F908   1.370       .  S
C903        F909   1.377       .  S
C906        F910   1.376       .  S
C906        F911   1.376   1_545  S
C906        F912   1.386       .  S
C913        C918   1.427       .  A
C913        H920   1.082       .  S
C914        C915   1.424       .  A
C915        C916   1.421       .  A
C915        C922   1.521       .  S
C916        H921   1.079       .  S
C917        C918   1.427       .  A
C918        C919   1.514       .  S
C919        F923   1.383       .  S
C919        F924   1.378       .  S
C919        F925   1.379       .  S
C922        F926   1.382       .  S
C922        F927   1.383       .  S
C922        F928   1.385       .  S
C929        C934   1.398       .  A
C929        H936   1.073       .  S
C930        C931   1.433   1_556  A
C931        C932   1.424   1_554  A
C932        C933   1.401       .  A
C932        H937   1.077       .  S
C934        C935   1.542       .  S
C935        F939   1.386       .  S
C935        F940   1.362       .  S
C935        F941   1.376       .  S
C938        F942   1.353       .  S
C938        F944   1.383       .  S
C945       C1954   1.403       .  A
C945        C950   1.403   1_655  A
C945        H952   1.086       .  S
C946       C1953   1.403       .  A
C946        C947   1.405       .  A
C947        C948   1.408       .  A
C947        C954   1.513       .  S
C948        C949   1.426       .  A
C948        H953   1.073       .  S
C949       C1514   1.556       .  S
C949       C1958   1.441       .  A
C950       C1957   1.441   1_455  A
C950        C951   1.517       .  S
C951        F955   1.387       .  S
C951        F956   1.358       .  S
C951        F957   1.382       .  S
C954        F958   1.378       .  S
C954        F959   1.374       .  S
C954        F960   1.380       .  S
C961        C962   1.423       .  A
C961        C966   1.446       .  A
C961        H968   1.082       .  S
C962       C1971   1.416       .  A
C963       C1970   1.416   1_455  A
C963        C964   1.404       .  A
C963        C970   1.498       .  S
C964       C1973   1.402   1_455  A
C964        H969   1.085       .  S
C965       C1972   1.402       .  A
C965        C966   1.428       .  A
C966        C967   1.510       .  S
C967        F971   1.384       .  S
C967        F972   1.383       .  S
C967        F973   1.380       .  S
C970        F974   1.363       .  S
C970        F975   1.382       .  S
C970        F976   1.383       .  S
C977       C1986   1.411       .  A
C977       C1990   1.431       .  A
C977        H984   1.082       .  S
C978       C1985   1.411   1_455  A
C978        C979   1.423       .  A
C979        C980   1.403       .  A
C979        C986   1.495       .  S
C980        C981   1.393       .  A
C980        H985   1.070       .  S
C981        C982   1.437   1_455  A
C982       C1985   1.431       .  A
C982       C1991   1.516       .  S
C983       C1990   1.516       .  S
C983        F987   1.385       .  S
C983       F1996   1.384       .  S
C983        F989   1.382       .  S
C986        F990   1.370       .  S
C986        F992   1.384       .  S
F988       C1991   1.384       .  S
C993       C2002   1.426       .  A
C993        C998   1.406       .  A
C993       H1000   1.071   1_556  S
C994       C1513   1.564   1_556  S
C994       C2001   1.426       .  A
C994        C995   1.445   1_655  A
C995        C996   1.402       .  A
C995       C1002   1.522       .  S
C996        C997   1.408   1_455  A
C996       H1001   1.085       .  S
C997       C2006   1.400       .  A
C998       C2005   1.400       .  A
C998        C999   1.513       .  S
C999       F1003   1.383   1_556  S
C999       F1004   1.384       .  S
C999       F1005   1.383       .  S
C1002      F1006   1.351       .  S
C1002      F1007   1.381       .  S
C1002      F1008   1.376       .  S
C1009      C1214   1.542       .  S
C1010      C1230   1.537       .  S
C1011      C1402   1.558       .  S
C1011      C1182   1.514       .  S
C1011      C1012   1.413       .  D
C1012      C1386   1.478       .  S
C1012      C1169   1.538       .  S
C1013      C1338   1.495       .  S
C1013      C1118   1.565       .  S
C1013      C1014   1.392       .  D
C1014      C1322   1.558       .  S
C1014      C1102   1.488       .  S
O1015      C1026   1.277       .  A
O1015     Eu1051   2.375       .  S
O1016      C1027   1.272       .  A
O1016     Eu1050   2.390       .  S
O1017      C1028   1.305       .  A
O1017     Eu1023   2.549       .  S
O1018      C1029   1.327       .  A
O1019      C1029   1.253       .  A
O1019     Eu1053   2.320   1_565  S
O1020      C1028   1.295       .  A
O1020     Eu1052   2.489   1_565  S
O1021      C1027   1.286       .  A
O1021     Eu1527   2.449       .  S
O1022     Eu1023   2.500   1_545  S
Eu1023     O1525   2.449       .  S
Eu1023     O1025   2.392   1_565  S
Eu1023     O1528   2.362       .  S
Eu1023     O1535   2.346       .  S
O1024     Eu1527   2.363       .  S
O1024     Eu1050   2.348       .  S
O1025     Eu1052   2.382       .  S
C1026      C1249   1.493       .  S
C1027      C1105   1.448       .  S
C1028      C1166   1.524       .  S
C1029      C1689   1.515       .  S
H1030      O1031   0.962       .  S
O1031     Eu1527   2.345       .  S
O1031     Eu1556   2.318       .  S
O1031     Eu1050   2.320       .  S
H1032      O1033   0.963       .  S
O1033     Eu1051   2.367       .  S
O1033     Eu1053   2.406       .  S
O1034      C1057   1.281       .  A
O1034     Eu1050   2.408       .  S
O1035      C1058   1.284       .  A
O1035     Eu1051   2.432       .  S
O1036      C1059   1.315       .  A
O1036     Eu1556   2.684       .  S
O1037      C1060   1.311       .  A
O1037     Eu1557   2.569       .  S
O1038      C1061   1.304       .  A
O1038     Eu1053   2.600       .  S
O1039      C1062   1.314       .  A
O1039     Eu1052   2.610       .  S
O1040      C1063   1.323       .  A
O1041      C1064   1.287       .  A
O1041     Eu1054   2.444       .  S
O1042      C1063   1.251       .  A
O1042     Eu1052   2.311       .  S
O1043      C1064   1.305       .  A
O1043     Eu1053   2.505       .  S
O1044      C1059   1.270       .  A
O1044     Eu1050   2.390       .  S
O1045     Eu1051   2.460       .  S
O1046      C1061   1.287       .  A
O1046     Eu1051   2.461       .  S
O1047     Eu1050   2.412       .  S
O1048     Eu1558   2.498       .  S
O1049      C1058   1.302       .  A
O1049     Eu1054   2.507       .  S
Eu1050     O1056   2.355       .  S
Eu1051     O1055   2.334       .  S
Eu1051     O1066   2.358       .  S
Eu1052     O1540   2.684   1_545  S
Eu1052     O1535   2.319   1_545  S
Eu1052     O1560   2.357   1_545  S
Eu1053     O1541   2.569   1_545  S
Eu1053     O1055   2.330       .  S
Eu1053     O1572   2.379   1_545  S
Eu1054     O1552   2.498   1_545  S
Eu1054     O1055   2.369       .  S
Eu1054     O1066   2.318       .  S
Eu1054     O1572   2.412   1_545  S
O1056     Eu1556   2.357       .  S
C1057      C1198   1.490       .  S
C1058      C1089   1.476       .  S
C1059      C1073   1.558       .  S
C1060      C1233   1.526       .  S
C1061      C1121   1.538       .  S
C1062      C1217   1.534       .  S
C1063      C1137   1.489       .  S
C1064      C1153   1.507       .  S
H1065      O1066   0.963       .  S
H1067      O1068   0.965       .  S
O1068     Eu1557   2.379       .  S
O1068     Eu1558   2.412       .  S
C1069      C1070   1.411       .  A
C1069      C1074   1.418       .  A
C1069      H1076   1.080       .  S
C1070      C1266   1.558       .  S
C1070      C1071   1.432       .  A
C1071      C1072   1.426       .  A
C1071      C1078   1.511       .  S
C1072      C1073   1.421       .  A
C1072      H1077   1.084       .  S
C1073      C1074   1.436       .  A
C1074      C1075   1.506       .  S
C1075      F1079   1.384   1_554  S
C1075      F1080   1.364       .  S
C1075      F1081   1.367       .  S
C1078      F1082   1.367       .  S
C1078      F1083   1.378       .  S
C1078      F1084   1.385       .  S
C1085      C1086   1.413       .  A
C1085      C1090   1.409       .  A
C1085      H1092   1.075       .  S
C1086      C1265   1.495   1_554  S
C1086      C1087   1.423       .  A
C1087      C1088   1.397       .  A
C1087      C1346   1.517       .  S
C1088      C1089   1.371       .  A
C1088      H1093   1.044       .  S
C1089      C1090   1.401       .  A
C1090      C1091   1.514       .  S
C1091      F1095   1.381       .  S
C1091      F1096   1.374       .  S
C1091      F1097   1.383       .  S
C1094      C1339   1.517       .  S
C1094      F1098   1.382       .  S
C1094      F1099   1.369       .  S
C1094      F1100   1.383       .  S
C1101      C1102   1.409       .  A
C1101      C1106   1.392       .  A
C1101      H1108   1.070       .  S
C1102      C1103   1.416       .  A
C1103      C1104   1.399       .  A
C1103      C1110   1.513       .  S
C1104      C1105   1.394       .  A
C1104      H1109   1.079       .  S
C1105      C1106   1.400       .  A
C1106      C1107   1.518       .  S
C1107      F1111   1.383       .  S
C1107      F1112   1.382       .  S
C1107      F1113   1.378       .  S
C1110      F1114   1.379       .  S
C1110      F1115   1.368       .  S
C1110      F1116   1.380       .  S
C1117      C1118   1.408       .  A
C1117      C1122   1.416       .  A
C1117      H1124   1.067       .  S
C1118      C1119   1.433       .  A
C1119      C1120   1.436       .  A
C1119      C1126   1.505       .  S
C1120      C1121   1.412       .  A
C1120      H1125   1.082       .  S
C1121      C1122   1.427       .  A
C1122      C1123   1.518       .  S
C1123      F1127   1.384       .  S
C1123      F1128   1.379       .  S
C1123      F1129   1.384       .  S
C1126      F1130   1.384       .  S
C1126      F1131   1.379       .  S
C1126      F1132   1.379       .  S
C1133      C1134   1.393       .  A
C1133      C1138   1.393       .  A
C1133      H1140   1.083       .  S
C1134      C1264   1.478   1_554  S
C1134      C1639   1.416       .  A
C1135      C1638   1.416       .  A
C1135      C1136   1.410       .  A
C1135      C1394   1.511   1_554  S
C1136      C1137   1.404       .  A
C1136      H1141   1.068       .  S
C1137      C1642   1.440   1_545  A
C1138      C1641   1.440       .  A
C1138      C1139   1.530       .  S
C1139      F1143   1.374       .  S
C1139      F1144   1.366       .  S
C1139      F1145   1.380       .  S
C1142      C1387   1.511       .  S
C1142      F1398   1.377       .  S
C1142      F1147   1.379       .  S
C1142      F1148   1.381       .  S
F1146      C1394   1.377   1_554  S
C1149      C1654   1.418       .  A
C1149      C1154   1.414       .  A
C1149      H1156   1.075   1_554  S
C1150      C1263   1.558       .  S
C1150      C1653   1.418       .  A
C1150      C1151   1.433       .  A
C1151      C1152   1.415       .  A
C1151      C1158   1.493       .  S
C1152      C1657   1.404       .  A
C1152      H1157   1.081       .  S
C1153      C1656   1.404       .  A
C1153      C1154   1.428       .  A
C1154      C1155   1.536       .  S
C1155      F1159   1.380   1_554  S
C1155      F1160   1.370       .  S
C1155      F1161   1.377       .  S
C1158      F1162   1.376       .  S
C1158      F1163   1.376       .  S
C1158      F1164   1.386       .  S
C1165      C1670   1.412       .  A
C1165      C1170   1.427       .  A
C1165      H1172   1.082       .  S
C1166      C1669   1.412       .  A
C1166      C1167   1.424   1_565  A
C1167      C1168   1.421       .  A
C1167      C1174   1.521       .  S
C1168      C1673   1.411   1_545  A
C1168      H1173   1.079       .  S
C1169      C1672   1.411       .  A
C1169      C1170   1.427       .  A
C1170      C1171   1.514       .  S
C1171      F1175   1.383       .  S
C1171      F1176   1.378       .  S
C1171      F1177   1.379       .  S
C1174      F1178   1.382       .  S
C1174      F1179   1.383       .  S
C1174      F1180   1.385       .  S
C1181      C1686   1.391   1_545  A
C1181      C1186   1.398   1_545  A
C1181      H1188   1.073       .  S
C1182      C1685   1.391       .  A
C1182      C1183   1.433       .  A
C1183      C1184   1.424       .  A
C1183      C1442   1.537       .  S
C1184      C1185   1.401       .  A
C1184      H1189   1.077       .  S
C1185      C1533   1.515       .  S
C1185      C1690   1.454       .  A
C1186      C1689   1.454       .  A
C1186      C1187   1.542       .  S
C1187      F1191   1.386   1_565  S
C1187      F1192   1.362   1_565  S
C1187      F1193   1.376       .  S
C1190      C1435   1.537       .  S
C1190      F1194   1.353       .  S
C1190      F1447   1.378       .  S
C1190      F1196   1.383       .  S
F1195      C1442   1.378       .  S
C1197      C1202   1.403       .  A
C1197      H1204   1.086       .  S
C1198      C1199   1.405       .  A
C1199      C1200   1.408   1_554  A
C1199      C1206   1.513   1_554  S
C1200      C1201   1.426   1_556  A
C1200      H1205   1.073       .  S
C1202      C1203   1.517       .  S
C1203      F1207   1.387       .  S
C1203      F1208   1.358       .  S
C1203      F1209   1.382       .  S
C1206      F1210   1.378   1_655  S
C1206      F1211   1.374   1_556  S
C1206      F1212   1.380       .  S
C1213      C1214   1.423       .  A
C1213      C1218   1.446       .  A
C1213      H1220   1.082       .  S
C1215      C1216   1.404       .  A
C1215      C1222   1.498       .  S
C1216      H1221   1.085       .  S
C1217      C1218   1.428       .  A
C1218      C1219   1.510       .  S
C1219      F1223   1.384       .  S
C1219      F1224   1.383       .  S
C1219      F1225   1.380       .  S
C1222      F1226   1.363       .  S
C1222      F1227   1.382       .  S
C1222      F1228   1.383       .  S
C1229      H1236   1.082       .  S
C1230      C1231   1.423       .  A
C1231      C1232   1.403       .  A
C1231      C1238   1.495       .  S
C1232      C1233   1.393       .  A
C1232      H1237   1.070       .  S
C1233      C1234   1.437       .  A
C1235      F1239   1.385       .  S
C1235      F1241   1.382       .  S
C1238      F1242   1.370       .  S
C1238      F1495   1.354       .  S
C1238      F1244   1.384       .  S
F1243      C1490   1.354       .  S
C1245      C1250   1.406       .  A
C1245      H1252   1.071       .  S
C1246      C1247   1.445       .  A
C1247      C1248   1.402       .  A
C1247      C1254   1.522       .  S
C1248      C1249   1.408       .  A
C1248      H1253   1.085       .  S
C1250      C1251   1.513       .  S
C1251      F1255   1.383       .  S
C1251      F1256   1.384   1_655  S
C1251      F1257   1.383       .  S
C1254      F1258   1.351       .  S
C1254      F1259   1.381       .  S
C1254      F1260   1.376       .  S
C1261      C1466   1.542       .  S
C1262      C1482   1.537       .  S
C1263      C1434   1.514   1_554  S
C1263      C1264   1.413   1_554  D
C1264      C1421   1.538       .  S
C1265      C1370   1.565       .  S
C1265      C1266   1.392   1_556  D
C1266      C1354   1.488   1_554  S
O1267      C1278   1.277       .  A
O1267     Eu1303   2.375       .  S
O1268      C1279   1.272       .  A
O1268     Eu1302   2.390       .  S
O1269      C1280   1.305       .  A
O1269     Eu1275   2.549       .  S
O1270      C1281   1.327       .  A
O1271      C1281   1.253       .  A
O1271     Eu1305   2.320   1_565  S
O1272      C1280   1.295       .  A
O1272     Eu1304   2.489   1_565  S
O1273      C1279   1.286       .  A
O1273     Eu1779   2.449       .  S
O1274     Eu1275   2.500   1_545  S
Eu1275     O1777   2.449       .  S
Eu1275     O1277   2.392   1_565  S
Eu1275     O1780   2.362       .  S
Eu1275     O1787   2.346       .  S
O1276     Eu1779   2.362       .  S
O1276     Eu1302   2.348       .  S
O1277     Eu1304   2.382       .  S
C1278      C1501   1.493       .  S
C1279      C1357   1.449       .  S
C1280      C1418   1.524       .  S
C1281      C1941   1.515       .  S
H1282      O1283   0.948       .  S
O1283     Eu1779   2.346       .  S
O1283     Eu1808   2.319       .  S
O1283     Eu1302   2.321       .  S
H1284      O1285   0.963       .  S
O1285     Eu1303   2.367       .  S
O1285     Eu1305   2.406       .  S
O1286      C1309   1.281       .  A
O1286     Eu1302   2.408       .  S
O1287      C1310   1.284       .  A
O1287     Eu1303   2.432       .  S
O1288      C1311   1.315       .  A
O1288     Eu1808   2.684       .  S
O1289      C1312   1.311       .  A
O1289     Eu1809   2.569       .  S
O1290      C1313   1.304       .  A
O1290     Eu1305   2.600       .  S
O1291      C1314   1.314       .  A
O1291     Eu1304   2.610       .  S
O1292      C1315   1.323       .  A
O1293      C1316   1.287       .  A
O1293     Eu1306   2.444       .  S
O1294      C1315   1.251       .  A
O1294     Eu1304   2.311       .  S
O1295      C1316   1.305       .  A
O1295     Eu1305   2.505       .  S
O1296      C1311   1.270       .  A
O1296     Eu1302   2.390       .  S
O1297     Eu1303   2.460       .  S
O1298      C1313   1.287       .  A
O1298     Eu1303   2.461       .  S
O1299     Eu1302   2.412       .  S
O1300     Eu1810   2.498       .  S
O1301      C1310   1.302       .  A
O1301     Eu1306   2.507       .  S
Eu1302     O1308   2.355       .  S
Eu1303     O1307   2.334       .  S
Eu1303     O1318   2.358       .  S
Eu1304     O1792   2.684   1_545  S
Eu1304     O1787   2.319   1_545  S
Eu1304     O1812   2.357   1_545  S
Eu1305     O1793   2.568   1_545  S
Eu1305     O1307   2.330       .  S
Eu1305     O1824   2.379   1_545  S
Eu1306     O1804   2.498   1_545  S
Eu1306     O1307   2.369       .  S
Eu1306     O1318   2.318       .  S
Eu1306     O1824   2.412   1_545  S
O1308     Eu1808   2.357       .  S
C1309      C1450   1.490       .  S
C1310      C1341   1.476       .  S
C1311      C1325   1.558       .  S
C1312      C1485   1.526       .  S
C1313      C1373   1.538       .  S
C1314      C1469   1.534       .  S
C1315      C1389   1.489       .  S
C1316      C1405   1.507       .  S
H1317      O1318   0.963       .  S
H1319      O1320   0.965       .  S
O1320     Eu1809   2.379       .  S
O1320     Eu1810   2.412       .  S
C1321      C1322   1.411       .  A
C1321      C1326   1.418       .  A
C1321      H1328   1.080       .  S
C1322      C1323   1.432       .  A
C1323      C1324   1.426       .  A
C1323      C1330   1.511       .  S
C1324      C1325   1.421       .  A
C1324      H1329   1.084       .  S
C1325      C1326   1.436       .  A
C1326      C1327   1.506       .  S
C1327      F1331   1.384       .  S
C1327      F1332   1.364       .  S
C1327      F1333   1.367       .  S
C1330      F1334   1.367       .  S
C1330      F1335   1.378       .  S
C1330      F1336   1.385       .  S
C1337      C1338   1.413       .  A
C1337      C1342   1.409       .  A
C1337      H1344   1.075       .  S
C1338      C1339   1.423       .  A
C1339      C1340   1.397       .  A
C1340      C1341   1.371       .  A
C1340      H1345   1.044       .  S
C1341      C1342   1.401       .  A
C1342      C1343   1.514       .  S
C1343      F1347   1.381       .  S
C1343      F1348   1.374       .  S
C1343      F1349   1.383       .  S
C1346      F1350   1.382   1_554  S
C1346      F1351   1.369   1_554  S
C1346      F1352   1.383       .  S
C1353      C1354   1.409       .  A
C1353      C1358   1.393       .  A
C1353      H1360   1.070       .  S
C1354      C1355   1.416       .  A
C1355      C1356   1.399       .  A
C1355      C1362   1.513       .  S
C1356      C1357   1.394       .  A
C1356      H1361   1.079       .  S
C1357      C1358   1.400       .  A
C1358      C1359   1.518       .  S
C1359      F1363   1.383       .  S
C1359      F1364   1.382       .  S
C1359      F1365   1.378       .  S
C1362      F1366   1.379       .  S
C1362      F1367   1.368   1_556  S
C1362      F1368   1.380   1_556  S
C1369      C1370   1.408       .  A
C1369      C1374   1.416       .  A
C1369      H1376   1.067       .  S
C1370      C1371   1.433       .  A
C1371      C1372   1.436       .  A
C1371      C1378   1.505       .  S
C1372      C1373   1.412       .  A
C1372      H1377   1.082       .  S
C1373      C1374   1.427       .  A
C1374      C1375   1.518       .  S
C1375      F1379   1.384       .  S
C1375      F1380   1.379       .  S
C1375      F1381   1.384       .  S
C1378      F1382   1.384       .  S
C1378      F1383   1.379       .  S
C1378      F1384   1.379       .  S
C1385      C1386   1.393       .  A
C1385      C1390   1.393       .  A
C1385      H1392   1.083       .  S
C1386      C1891   1.416       .  A
C1387      C1890   1.416       .  A
C1387      C1388   1.410       .  A
C1388      C1389   1.404       .  A
C1388      H1393   1.068       .  S
C1389      C1894   1.440   1_545  A
C1390      C1893   1.440       .  A
C1390      C1391   1.530       .  S
C1391      F1395   1.374       .  S
C1391      F1396   1.366       .  S
C1391      F1397   1.380       .  S
C1394      F1399   1.379       .  S
C1394      F1400   1.381       .  S
C1401      C1906   1.418       .  A
C1401      C1406   1.414       .  A
C1401      H1408   1.075       .  S
C1402      C1905   1.418       .  A
C1402      C1403   1.433       .  A
C1403      C1404   1.415       .  A
C1403      C1410   1.493       .  S
C1404      C1909   1.404       .  A
C1404      H1409   1.081       .  S
C1405      C1908   1.404       .  A
C1405      C1406   1.428       .  A
C1406      C1407   1.536       .  S
C1407      F1411   1.380       .  S
C1407      F1412   1.370       .  S
C1407      F1413   1.377       .  S
C1410      F1414   1.376       .  S
C1410      F1415   1.376       .  S
C1410      F1416   1.386       .  S
C1417      C1922   1.412       .  A
C1417      C1422   1.427       .  A
C1417      H1424   1.082       .  S
C1418      C1921   1.412       .  A
C1418      C1419   1.424   1_565  A
C1419      C1420   1.421       .  A
C1419      C1426   1.521       .  S
C1420      C1925   1.411   1_545  A
C1420      H1425   1.079       .  S
C1421      C1924   1.411       .  A
C1421      C1422   1.427       .  A
C1422      C1423   1.514       .  S
C1423      F1427   1.383       .  S
C1423      F1428   1.378       .  S
C1423      F1429   1.379       .  S
C1426      F1430   1.382       .  S
C1426      F1431   1.383       .  S
C1426      F1432   1.385       .  S
C1433      C1938   1.391   1_545  A
C1433      C1438   1.398   1_545  A
C1433      H1440   1.073       .  S
C1434      C1937   1.391       .  A
C1434      C1435   1.433   1_556  A
C1435      C1436   1.424   1_554  A
C1436      C1437   1.401       .  A
C1436      H1441   1.077       .  S
C1437      C1785   1.515       .  S
C1437      C1942   1.454       .  A
C1438      C1941   1.454       .  A
C1438      C1439   1.542       .  S
C1439      F1443   1.386   1_565  S
C1439      F1444   1.362   1_565  S
C1439      F1445   1.376       .  S
C1442      F1446   1.353       .  S
C1442      F1448   1.383       .  S
C1449      C1454   1.403       .  A
C1449      H1456   1.086       .  S
C1450      C1451   1.405       .  A
C1451      C1452   1.408       .  A
C1451      C1458   1.513       .  S
C1452      C1453   1.426       .  A
C1452      H1457   1.073       .  S
C1454      C1455   1.517       .  S
C1455      F1459   1.387       .  S
C1455      F1460   1.358       .  S
C1455      F1461   1.382       .  S
C1458      F1462   1.378   1_655  S
C1458      F1463   1.374       .  S
C1458      F1464   1.380       .  S
C1465      C1466   1.423       .  A
C1465      C1470   1.446       .  A
C1465      H1472   1.082       .  S
C1467      C1468   1.404       .  A
C1467      C1474   1.498       .  S
C1468      H1473   1.085       .  S
C1469      C1470   1.428       .  A
C1470      C1471   1.510       .  S
C1471      F1475   1.384       .  S
C1471      F1476   1.383       .  S
C1471      F1477   1.380       .  S
C1474      F1478   1.363       .  S
C1474      F1479   1.382       .  S
C1474      F1480   1.383       .  S
C1481      H1488   1.082       .  S
C1482      C1483   1.423       .  A
C1483      C1484   1.403       .  A
C1483      C1490   1.495       .  S
C1484      C1485   1.393       .  A
C1484      H1489   1.070       .  S
C1485      C1486   1.437       .  A
C1487      F1491   1.385       .  S
C1487      F1493   1.382       .  S
C1490      F1494   1.370       .  S
C1490      F1496   1.384       .  S
C1497      C1502   1.406       .  A
C1497      H1504   1.071   1_556  S
C1498      C1499   1.445       .  A
C1499      C1500   1.402       .  A
C1499      C1506   1.522       .  S
C1500      C1501   1.408       .  A
C1500      H1505   1.085       .  S
C1502      C1503   1.513       .  S
C1503      F1507   1.383   1_556  S
C1503      F1508   1.384   1_655  S
C1503      F1509   1.383       .  S
C1506      F1510   1.351       .  S
C1506      F1511   1.381       .  S
C1506      F1512   1.376       .  S
C1513      C1718   1.542       .  S
C1514      C1734   1.537       .  S
C1515      C1906   1.558       .  S
C1515      C1686   1.514   1_545  S
C1515      C1516   1.413       .  D
C1516      C1890   1.478       .  S
C1516      C1673   1.538   1_545  S
C1517      C1842   1.495       .  S
C1517      C1622   1.565       .  S
C1517      C1518   1.392       .  D
C1518      C1826   1.558       .  S
C1518      C1606   1.488       .  S
O1519      C1530   1.277       .  A
O1519     Eu1555   2.375       .  S
O1520      C1531   1.272       .  A
O1520     Eu1554   2.390       .  S
O1521      C1532   1.305       .  A
O1521     Eu1527   2.549       .  S
O1522      C1533   1.327       .  A
O1523      C1533   1.253       .  A
O1523     Eu1557   2.320       .  S
O1524      C1532   1.295       .  A
O1524     Eu1556   2.489       .  S
O1525      C1531   1.286       .  A
O1526     Eu1527   2.500       .  S
Eu1527     O1529   2.392       .  S
O1528     Eu1554   2.348       .  S
O1529     Eu1556   2.382       .  S
C1530      C1753   1.493       .  S
C1531      C1609   1.449       .  S
C1532      C1670   1.524       .  S
H1534      O1535   0.948   1_545  S
O1535     Eu1554   2.321       .  S
H1536      O1537   0.963       .  S
O1537     Eu1555   2.367       .  S
O1537     Eu1557   2.406       .  S
O1538      C1561   1.281       .  A
O1538     Eu1554   2.408       .  S
O1539      C1562   1.284       .  A
O1539     Eu1555   2.432       .  S
O1540      C1563   1.315       .  A
O1541      C1564   1.311       .  A
O1542      C1565   1.304       .  A
O1542     Eu1557   2.600       .  S
O1543      C1566   1.314       .  A
O1543     Eu1556   2.610       .  S
O1544      C1567   1.323       .  A
O1545      C1568   1.287       .  A
O1545     Eu1558   2.444       .  S
O1546      C1567   1.251       .  A
O1546     Eu1556   2.311       .  S
O1547      C1568   1.305       .  A
O1547     Eu1557   2.505       .  S
O1548      C1563   1.270       .  A
O1548     Eu1554   2.390       .  S
O1549     Eu1555   2.460       .  S
O1550      C1565   1.287       .  A
O1550     Eu1555   2.461       .  S
O1551     Eu1554   2.412       .  S
O1553      C1562   1.302       .  A
O1553     Eu1558   2.507       .  S
Eu1554     O1560   2.355       .  S
Eu1555     O1559   2.334       .  S
Eu1555     O1570   2.358       .  S
Eu1557     O1559   2.330       .  S
Eu1558     O1559   2.369       .  S
Eu1558     O1570   2.318       .  S
C1561      C1702   1.490       .  S
C1562      C1593   1.476       .  S
C1563      C1577   1.558       .  S
C1564      C1737   1.526       .  S
C1565      C1625   1.538       .  S
C1566      C1721   1.534       .  S
C1567      C1641   1.489       .  S
C1568      C1657   1.507       .  S
H1569      O1570   0.963       .  S
H1571      O1572   0.965       .  S
C1573      C1574   1.411       .  A
C1573      C1578   1.418       .  A
C1573      H1580   1.080       .  S
C1574      C1770   1.558       .  S
C1574      C1575   1.432       .  A
C1575      C1576   1.426       .  A
C1575      C1582   1.511       .  S
C1576      C1577   1.421       .  A
C1576      H1581   1.084       .  S
C1577      C1578   1.436       .  A
C1578      C1579   1.506       .  S
C1579      F1583   1.384   1_554  S
C1579      F1584   1.364       .  S
C1579      F1585   1.367       .  S
C1582      F1586   1.367       .  S
C1582      F1587   1.378       .  S
C1582      F1588   1.385       .  S
C1589      C1590   1.413       .  A
C1589      C1594   1.409       .  A
C1589      H1596   1.075       .  S
C1590      C1769   1.495   1_554  S
C1590      C1591   1.423       .  A
C1591      C1592   1.397       .  A
C1591      C1850   1.517       .  S
C1592      C1593   1.371       .  A
C1592      H1597   1.044       .  S
C1593      C1594   1.401       .  A
C1594      C1595   1.514       .  S
C1595      F1599   1.381       .  S
C1595      F1600   1.374       .  S
C1595      F1601   1.383       .  S
C1598      C1843   1.517       .  S
C1598      F1602   1.382       .  S
C1598      F1603   1.369       .  S
C1598      F1604   1.383       .  S
C1605      C1606   1.409       .  A
C1605      C1610   1.393       .  A
C1605      H1612   1.070       .  S
C1606      C1607   1.416       .  A
C1607      C1608   1.399       .  A
C1607      C1614   1.513       .  S
C1608      C1609   1.394       .  A
C1608      H1613   1.079       .  S
C1609      C1610   1.400       .  A
C1610      C1611   1.518       .  S
C1611      F1615   1.383       .  S
C1611      F1616   1.382       .  S
C1611      F1617   1.378       .  S
C1614      F1618   1.379       .  S
C1614      F1619   1.368       .  S
C1614      F1620   1.380       .  S
C1621      C1622   1.408       .  A
C1621      C1626   1.416       .  A
C1621      H1628   1.067       .  S
C1622      C1623   1.433       .  A
C1623      C1624   1.436       .  A
C1623      C1630   1.505       .  S
C1624      C1625   1.412       .  A
C1624      H1629   1.082       .  S
C1625      C1626   1.427       .  A
C1626      C1627   1.518       .  S
C1627      F1631   1.384       .  S
C1627      F1632   1.379       .  S
C1627      F1633   1.384       .  S
C1630      F1634   1.384       .  S
C1630      F1635   1.379       .  S
C1630      F1636   1.379       .  S
C1637      C1638   1.393   1_565  A
C1637      C1642   1.393       .  A
C1637      H1644   1.083       .  S
C1638      C1768   1.478   1_554  S
C1639      C1640   1.410       .  A
C1639      C1898   1.511   1_554  S
C1640      C1641   1.404       .  A
C1640      H1645   1.068       .  S
C1642      C1643   1.530       .  S
C1643      F1647   1.374       .  S
C1643      F1648   1.366       .  S
C1643      F1649   1.380       .  S
C1646      C1891   1.511       .  S
C1646      F1902   1.377       .  S
C1646      F1651   1.379       .  S
C1646      F1652   1.381       .  S
F1650      C1898   1.377   1_554  S
C1653      C1658   1.414       .  A
C1653      H1660   1.075   1_554  S
C1654      C1767   1.558       .  S
C1654      C1655   1.433       .  A
C1655      C1656   1.415       .  A
C1655      C1662   1.493       .  S
C1656      H1661   1.081       .  S
C1657      C1658   1.428       .  A
C1658      C1659   1.536       .  S
C1659      F1663   1.380   1_554  S
C1659      F1664   1.370       .  S
C1659      F1665   1.378       .  S
C1662      F1666   1.376       .  S
C1662      F1667   1.376   1_545  S
C1662      F1668   1.386       .  S
C1669      C1674   1.427       .  A
C1669      H1676   1.082       .  S
C1670      C1671   1.424       .  A
C1671      C1672   1.421       .  A
C1671      C1678   1.521       .  S
C1672      H1677   1.079       .  S
C1673      C1674   1.427       .  A
C1674      C1675   1.514       .  S
C1675      F1679   1.383       .  S
C1675      F1680   1.378       .  S
C1675      F1681   1.379       .  S
C1678      F1682   1.382       .  S
C1678      F1683   1.383       .  S
C1678      F1684   1.385       .  S
C1685      C1690   1.398       .  A
C1685      H1692   1.073       .  S
C1686      C1687   1.433       .  A
C1687      C1688   1.424       .  A
C1687      C1946   1.537       .  S
C1688      C1689   1.401       .  A
C1688      H1693   1.077       .  S
C1690      C1691   1.542       .  S
C1691      F1695   1.386       .  S
C1691      F1696   1.362       .  S
C1691      F1697   1.376       .  S
C1694      C1939   1.537       .  S
C1694      F1698   1.353       .  S
C1694      F1951   1.378       .  S
C1694      F1700   1.383       .  S
F1699      C1946   1.378       .  S
C1701      C1706   1.403       .  A
C1701      H1708   1.086       .  S
C1702      C1703   1.405       .  A
C1703      C1704   1.408   1_554  A
C1703      C1710   1.513   1_554  S
C1704      C1705   1.426   1_556  A
C1704      H1709   1.073       .  S
C1706      C1707   1.517       .  S
C1707      F1711   1.387       .  S
C1707      F1712   1.358       .  S
C1707      F1713   1.382       .  S
C1710      F1714   1.378   1_655  S
C1710      F1715   1.374   1_556  S
C1710      F1716   1.380       .  S
C1717      C1718   1.423       .  A
C1717      C1722   1.446       .  A
C1717      H1724   1.082       .  S
C1719      C1720   1.404       .  A
C1719      C1726   1.498       .  S
C1720      H1725   1.085       .  S
C1721      C1722   1.428       .  A
C1722      C1723   1.510       .  S
C1723      F1727   1.384       .  S
C1723      F1728   1.383       .  S
C1723      F1729   1.380       .  S
C1726      F1730   1.363       .  S
C1726      F1731   1.382       .  S
C1726      F1732   1.383       .  S
C1733      H1740   1.082       .  S
C1734      C1735   1.423       .  A
C1735      C1736   1.403       .  A
C1735      C1742   1.495       .  S
C1736      C1737   1.393       .  A
C1736      H1741   1.070       .  S
C1737      C1738   1.437       .  A
C1739      F1743   1.385       .  S
C1739      F1745   1.382       .  S
C1742      F1746   1.370       .  S
C1742      F1999   1.354       .  S
C1742      F1748   1.384       .  S
F1747      C1994   1.354       .  S
C1749      C1754   1.406       .  A
C1749      H1756   1.071       .  S
C1750      C1751   1.445       .  A
C1751      C1752   1.402       .  A
C1751      C1758   1.522       .  S
C1752      C1753   1.408       .  A
C1752      H1757   1.085       .  S
C1754      C1755   1.513       .  S
C1755      F1759   1.383       .  S
C1755      F1760   1.384   1_655  S
C1755      F1761   1.383       .  S
C1758      F1762   1.351       .  S
C1758      F1763   1.381       .  S
C1758      F1764   1.376       .  S
C1765      C1970   1.542       .  S
C1766      C1986   1.537       .  S
C1767      C1938   1.514   1_544  S
C1767      C1768   1.413   1_554  D
C1768      C1925   1.538   1_545  S
C1769      C1874   1.565       .  S
C1769      C1770   1.392   1_556  D
C1770      C1858   1.488   1_554  S
O1771      C1782   1.277       .  A
O1771     Eu1807   2.375       .  S
O1772      C1783   1.272       .  A
O1772     Eu1806   2.390       .  S
O1773      C1784   1.305       .  A
O1773     Eu1779   2.549       .  S
O1774      C1785   1.327       .  A
O1775      C1785   1.253       .  A
O1775     Eu1809   2.320       .  S
O1776      C1784   1.295       .  A
O1776     Eu1808   2.489       .  S
O1777      C1783   1.286       .  A
O1778     Eu1779   2.500       .  S
Eu1779     O1781   2.392       .  S
O1780     Eu1806   2.348       .  S
O1781     Eu1808   2.382       .  S
C1782      C2005   1.493       .  S
C1783      C1861   1.449       .  S
C1784      C1922   1.524       .  S
H1786      O1787   0.948   1_545  S
O1787     Eu1806   2.321       .  S
H1788      O1789   0.963       .  S
O1789     Eu1807   2.367       .  S
O1789     Eu1809   2.406       .  S
O1790      C1813   1.281       .  A
O1790     Eu1806   2.408       .  S
O1791      C1814   1.284       .  A
O1791     Eu1807   2.432       .  S
O1792      C1815   1.315       .  A
O1793      C1816   1.311       .  A
O1794      C1817   1.304       .  A
O1794     Eu1809   2.600       .  S
O1795      C1818   1.314       .  A
O1795     Eu1808   2.610       .  S
O1796      C1819   1.323       .  A
O1797      C1820   1.287       .  A
O1797     Eu1810   2.444       .  S
O1798      C1819   1.251       .  A
O1798     Eu1808   2.311       .  S
O1799      C1820   1.305       .  A
O1799     Eu1809   2.505       .  S
O1800      C1815   1.270       .  A
O1800     Eu1806   2.390       .  S
O1801     Eu1807   2.460       .  S
O1802      C1817   1.287       .  A
O1802     Eu1807   2.461       .  S
O1803     Eu1806   2.412       .  S
O1805      C1814   1.302       .  A
O1805     Eu1810   2.507       .  S
Eu1806     O1812   2.355       .  S
Eu1807     O1811   2.334       .  S
Eu1807     O1822   2.358       .  S
Eu1809     O1811   2.330       .  S
Eu1810     O1811   2.369       .  S
Eu1810     O1822   2.318       .  S
C1813      C1954   1.490       .  S
C1814      C1845   1.476       .  S
C1815      C1829   1.558       .  S
C1816      C1989   1.526       .  S
C1817      C1877   1.538       .  S
C1818      C1973   1.534       .  S
C1819      C1893   1.489       .  S
C1820      C1909   1.507       .  S
H1821      O1822   0.963       .  S
H1823      O1824   0.965       .  S
C1825      C1826   1.411       .  A
C1825      C1830   1.418       .  A
C1825      H1832   1.080       .  S
C1826      C1827   1.432       .  A
C1827      C1828   1.426       .  A
C1827      C1834   1.511       .  S
C1828      C1829   1.421       .  A
C1828      H1833   1.084       .  S
C1829      C1830   1.436       .  A
C1830      C1831   1.506       .  S
C1831      F1835   1.384       .  S
C1831      F1836   1.364       .  S
C1831      F1837   1.367       .  S
C1834      F1838   1.367       .  S
C1834      F1839   1.378       .  S
C1834      F1840   1.385       .  S
C1841      C1842   1.413       .  A
C1841      C1846   1.409       .  A
C1841      H1848   1.075       .  S
C1842      C1843   1.423       .  A
C1843      C1844   1.397       .  A
C1844      C1845   1.371       .  A
C1844      H1849   1.044       .  S
C1845      C1846   1.401       .  A
C1846      C1847   1.514       .  S
C1847      F1851   1.381       .  S
C1847      F1852   1.374       .  S
C1847      F1853   1.383       .  S
C1850      F1854   1.382   1_554  S
C1850      F1855   1.369   1_554  S
C1850      F1856   1.383       .  S
C1857      C1858   1.409       .  A
C1857      C1862   1.393       .  A
C1857      H1864   1.070       .  S
C1858      C1859   1.416       .  A
C1859      C1860   1.399       .  A
C1859      C1866   1.513       .  S
C1860      C1861   1.394       .  A
C1860      H1865   1.079       .  S
C1861      C1862   1.400       .  A
C1862      C1863   1.518       .  S
C1863      F1867   1.383       .  S
C1863      F1868   1.382       .  S
C1863      F1869   1.378       .  S
C1866      F1870   1.379       .  S
C1866      F1871   1.368   1_556  S
C1866      F1872   1.380   1_556  S
C1873      C1874   1.408       .  A
C1873      C1878   1.416       .  A
C1873      H1880   1.067       .  S
C1874      C1875   1.433       .  A
C1875      C1876   1.436       .  A
C1875      C1882   1.505       .  S
C1876      C1877   1.412       .  A
C1876      H1881   1.082       .  S
C1877      C1878   1.427       .  A
C1878      C1879   1.518       .  S
C1879      F1883   1.384       .  S
C1879      F1884   1.379       .  S
C1879      F1885   1.384       .  S
C1882      F1886   1.384       .  S
C1882      F1887   1.379       .  S
C1882      F1888   1.379       .  S
C1889      C1890   1.393   1_565  A
C1889      C1894   1.393       .  A
C1889      H1896   1.083       .  S
C1891      C1892   1.410       .  A
C1892      C1893   1.404       .  A
C1892      H1897   1.068       .  S
C1894      C1895   1.530       .  S
C1895      F1899   1.374       .  S
C1895      F1900   1.366       .  S
C1895      F1901   1.380       .  S
C1898      F1903   1.379       .  S
C1898      F1904   1.381       .  S
C1905      C1910   1.414       .  A
C1905      H1912   1.075       .  S
C1906      C1907   1.433       .  A
C1907      C1908   1.415       .  A
C1907      C1914   1.493       .  S
C1908      H1913   1.081       .  S
C1909      C1910   1.428       .  A
C1910      C1911   1.536       .  S
C1911      F1915   1.380       .  S
C1911      F1916   1.370       .  S
C1911      F1917   1.377       .  S
C1914      F1918   1.376       .  S
C1914      F1919   1.376   1_545  S
C1914      F1920   1.386       .  S
C1921      C1926   1.427       .  A
C1921      H1928   1.082       .  S
C1922      C1923   1.424       .  A
C1923      C1924   1.421       .  A
C1923      C1930   1.521       .  S
C1924      H1929   1.079       .  S
C1925      C1926   1.427       .  A
C1926      C1927   1.514       .  S
C1927      F1931   1.383       .  S
C1927      F1932   1.378       .  S
C1927      F1933   1.379       .  S
C1930      F1934   1.382       .  S
C1930      F1935   1.383       .  S
C1930      F1936   1.385       .  S
C1937      C1942   1.398       .  A
C1937      H1944   1.073       .  S
C1938      C1939   1.433   1_556  A
C1939      C1940   1.424   1_554  A
C1940      C1941   1.401       .  A
C1940      H1945   1.077       .  S
C1942      C1943   1.542       .  S
C1943      F1947   1.386       .  S
C1943      F1948   1.362       .  S
C1943      F1949   1.376       .  S
C1946      F1950   1.353       .  S
C1946      F1952   1.383       .  S
C1953      C1958   1.403       .  A
C1953      H1960   1.086       .  S
C1954      C1955   1.405       .  A
C1955      C1956   1.408       .  A
C1955      C1962   1.513       .  S
C1956      C1957   1.426       .  A
C1956      H1961   1.073       .  S
C1958      C1959   1.517       .  S
C1959      F1963   1.387       .  S
C1959      F1964   1.358       .  S
C1959      F1965   1.382       .  S
C1962      F1966   1.378   1_655  S
C1962      F1967   1.374       .  S
C1962      F1968   1.380       .  S
C1969      C1970   1.423       .  A
C1969      C1974   1.446       .  A
C1969      H1976   1.082       .  S
C1971      C1972   1.404       .  A
C1971      C1978   1.498       .  S
C1972      H1977   1.085       .  S
C1973      C1974   1.428       .  A
C1974      C1975   1.510       .  S
C1975      F1979   1.384       .  S
C1975      F1980   1.383       .  S
C1975      F1981   1.380       .  S
C1978      F1982   1.363       .  S
C1978      F1983   1.382       .  S
C1978      F1984   1.383       .  S
C1985      H1992   1.082       .  S
C1986      C1987   1.423       .  A
C1987      C1988   1.403       .  A
C1987      C1994   1.495       .  S
C1988      C1989   1.393       .  A
C1988      H1993   1.070       .  S
C1989      C1990   1.437       .  A
C1991      F1995   1.385       .  S
C1991      F1997   1.382       .  S
C1994      F1998   1.370       .  S
C1994      F2000   1.384       .  S
C2001      C2006   1.406       .  A
C2001      H2008   1.071   1_556  S
C2002      C2003   1.445       .  A
C2003      C2004   1.402       .  A
C2003      C2010   1.522       .  S
C2004      C2005   1.408       .  A
C2004      H2009   1.085       .  S
C2006      C2007   1.513       .  S
C2007      F2011   1.383   1_556  S
C2007      F2012   1.384   1_655  S
C2007      F2013   1.383       .  S
C2010      F2014   1.351       .  S
C2010      F2015   1.381       .  S
C2010      F2016   1.376       .  S
