geometry optimzed in LAMMPS
_audit_creation_date              2020-11-30 
_audit_creation_method            'lammps2cif' 
_symmetry_space_group_name_H-M    'P1' 
_symmetry_Int_Tables_number       1 
_symmetry_cell_setting            triclinic 
loop_ 
_symmetry_equiv_pos_as_xyz 
  x,y,z 
_cell_length_a                    52.9909063415012 
_cell_length_b                    52.95639945701656 
_cell_length_c                    53.03288478904487 
_cell_angle_alpha                 89.98933700408217 
_cell_angle_beta                  89.97541955349577 
_cell_angle_gamma                 89.98498735603944 
loop_ 
_atom_site_label 
_atom_site_type_symbol 
_atom_site_fract_x 
_atom_site_fract_y 
_atom_site_fract_z 
_atom_site_charge 
O1          O  0.89971630  0.79659278  0.23291457    -0.83580
C2          C  0.85572105  0.75469317  0.31986278     0.95780
O3          O  0.84583196  0.75582993  0.29830860    -0.72690
O4          O  0.84678704  0.80274211  0.28569582    -0.76290
Al5        Al  0.85613203  0.77281552  0.26875265     1.48980
C6          C  0.85566616  0.82436121  0.28144724     0.91030
O7          O  0.91083097  0.81213091  0.30353727    -0.82510
O8          O  0.92784086  0.74661874  0.27097988    -0.76060
Al9        Al  0.90498461  0.80350453  0.26856755     1.90120
O10         O  0.92398614  0.77433188  0.31418427    -0.75130
O11         O  0.88490499  0.72443493  0.28135386    -0.74980
O12         O  0.87930283  0.75542700  0.32267039    -0.80640
O13         O  0.86256736  0.74223348  0.25141895    -0.78850
O14         O  0.88802428  0.77608113  0.27757231    -1.14980
O15         O  0.85908528  0.78939550  0.23696771    -0.74180
C16         C  0.87812429  0.79295774  0.22315726     0.96540
C17         C  0.92046117  0.79724647  0.31960586     0.92940
Al18       Al  0.90286283  0.75208865  0.29577165     1.55560
O19         O  0.87654530  0.82678508  0.27004954    -0.78800
C20         C  0.87177117  0.72274131  0.26159449     0.97110
C21         C  0.94346887  0.76336145  0.26450141     0.91990
O22         O  0.93741698  0.78655207  0.26550260    -0.84120
O23         O  0.94358437  0.83966151  0.51017816    -0.83580
C24         C  0.98780869  0.88406085  0.42439840     0.95780
O25         O  0.98623019  0.89381364  0.44599124    -0.72690
O26         O  0.93916321  0.89336923  0.45803242    -0.76290
Al27       Al  0.96871004  0.88338342  0.47522981     1.48980
C28         C  0.91737381  0.88480382  0.46197203     0.91030
O29         O  0.92904302  0.82977686  0.43929043    -0.82510
O30         O  0.99366909  0.81120788  0.47263342    -0.76060
Al31       Al  0.93722747  0.83498206  0.47440257     1.90120
O32         O  0.96672965  0.81608898  0.42895809    -0.75130
O33         O  0.01680194  0.85390185  0.46307901    -0.74980
O34         O  0.98670068  0.86050363  0.42136674    -0.80640
O35         O  0.99897537  0.87638363  0.49288679    -0.78850
O36         O  0.96507484  0.85162186  0.46602044    -1.14980
O37         O  0.95168648  0.88023249  0.50672013    -0.74180
C38         C  0.94726225  0.86112721  0.52020624     0.96540
C39         C  0.94395549  0.82009217  0.42329411     0.92940
Al40       Al  0.98908401  0.83656987  0.44803565     1.55560
O41         O  0.91447424  0.86381074  0.47304189    -0.78800
C42         C  0.01847468  0.86712467  0.48278788     0.97110
C43         C  0.97657289  0.79574701  0.47855655     0.91990
O44         O  0.95352637  0.80219146  0.47723668    -0.84120
O45         O  0.50751143  0.94938830  0.83884182    -0.83580
C46         C  0.42035774  0.98842150  0.88557467     0.95780
O47         O  0.44222565  0.98762355  0.89476081    -0.72690
O48         O  0.45528659  0.94095115  0.89219319    -0.76290
Al49       Al  0.47167125  0.97116018  0.88326278     1.48980
C50         C  0.45954305  0.91956067  0.88279700     0.91030
O51         O  0.43719267  0.93208547  0.82784670    -0.82510
O52         O  0.46634539  0.99891756  0.81199568    -0.76060
Al53       Al  0.47184046  0.94164483  0.83370998     1.90120
O54         O  0.42394445  0.96990726  0.81730667    -0.75130
O55         O  0.45760631  0.01979405  0.85566883    -0.74980
O56         O  0.41691147  0.98793348  0.86214293    -0.80640
O57         O  0.48842260  0.00194954  0.87687367    -0.78850
O58         O  0.46220005  0.96838457  0.85148938    -1.14980
O59         O  0.50360739  0.95500895  0.87961826    -0.74180
C60         C  0.51740394  0.95265729  0.86042389     0.96540
C61         C  0.41971910  0.94671338  0.82055487     0.92940
Al62       Al  0.44284457  0.99223101  0.83781342     1.55560
O63         O  0.47093771  0.91761993  0.86180913    -0.78800
C64         C  0.47787693  0.02142278  0.86805911     0.97110
C65         C  0.47381306  0.98288895  0.79611994     0.91990
O66         O  0.47413889  0.95956497  0.80172691    -0.84120
O67         O  0.22968785  0.90232373  0.79391372    -0.83580
C68         C  0.31578095  0.85291882  0.75597167     0.95780
O69         O  0.29361040  0.84453912  0.75634031    -0.72690
O70         O  0.28077025  0.84802709  0.80293052    -0.76290
Al71       Al  0.26462530  0.85702611  0.77264482     1.48980
C72         C  0.27699292  0.85786183  0.82419688     0.91030
O73         O  0.29976464  0.91264155  0.81146032    -0.82510
O74         O  0.27265019  0.92845162  0.74434144    -0.76060
Al75       Al  0.26535096  0.90695600  0.80163390     1.90120
O76         O  0.31462850  0.92140900  0.77376938    -0.75130
O77         O  0.27967056  0.88391513  0.72399152    -0.74980
O78         O  0.32000725  0.87626240  0.75624151    -0.80640
O79         O  0.24817729  0.86348018  0.74164629    -0.78850
O80         O  0.27489604  0.88868921  0.77518786    -1.14980
O81         O  0.23286326  0.86140897  0.78875875    -0.74180
C82         C  0.21943508  0.88083626  0.79124707     0.96540
C83         C  0.31767836  0.91944980  0.79723474     0.92940
Al84       Al  0.29498840  0.90155395  0.75147962     1.55560
O85         O  0.26590786  0.87906704  0.82595615    -0.78800
C86         C  0.25936976  0.87151523  0.72217649     0.97110
C87         C  0.26467946  0.94436291  0.76012602     0.91990
O88         O  0.26354091  0.93871719  0.78336891    -0.84120
O89         O  0.22893896  0.09089400  0.69348484    -0.83580
C90         C  0.31573774  0.13662548  0.73415996     0.95780
O91         O  0.29389526  0.14603981  0.73393405    -0.72690
O92         O  0.27966672  0.14541124  0.68772718    -0.76290
Al93       Al  0.26397988  0.13517141  0.71795930     1.48980
C94         C  0.27577087  0.13651817  0.66610137     0.91030
O95         O  0.30031323  0.08200844  0.67778045    -0.82510
O96         O  0.26825921  0.06367053  0.74360914    -0.76060
Al97       Al  0.26487857  0.08654373  0.68662674     1.90120
O98         O  0.31053669  0.06787712  0.71504439    -0.75130
O99         O  0.27911482  0.10681609  0.76560235    -0.74980
O100        O  0.31906703  0.11306414  0.73332429    -0.80640
O101        O  0.24774693  0.12809143  0.74907935    -0.78850
O102        O  0.27356049  0.10356004  0.71411451    -1.14980
O103        O  0.23192207  0.13135841  0.70243392    -0.74180
C104        C  0.21864598  0.11218551  0.69776548     0.96540
C105        C  0.31674488  0.07310051  0.69274147     0.92940
Al106      Al  0.29266276  0.08898852  0.73756952     1.55560
O107        O  0.26537332  0.11514624  0.66352078    -0.78800
C108        C  0.25916484  0.11950484  0.76813330     0.97110
C109        C  0.26207639  0.04777554  0.72697402     0.91990
O110        O  0.26274275  0.05382284  0.70372837    -0.84120
O111        O  0.50856875  0.04966432  0.65072611    -0.83580
C112        C  0.42025965  0.01185356  0.60461694     0.95780
O113        O  0.44224636  0.01132350  0.59555838    -0.72690
O114        O  0.45832994  0.05691952  0.59632400    -0.76290
Al115      Al  0.47269332  0.02621366  0.60670297     1.48980
C116        C  0.46264643  0.07843431  0.60533886     0.91030
O117        O  0.43834087  0.06837646  0.66029642    -0.82510
O118        O  0.46616812  0.00092230  0.67794084    -0.76060
Al119      Al  0.47297764  0.05775693  0.65519451     1.90120
O120        O  0.42519963  0.03142930  0.67332618    -0.75130
O121        O  0.45497661  0.97948913  0.63485256    -0.74980
O122        O  0.41661177  0.01354104  0.62805184    -0.80640
O123        O  0.48755719  0.99450353  0.61423345    -0.78850
O124        O  0.46293308  0.03069892  0.63815719    -1.14980
O125        O  0.50539705  0.04053260  0.61045941    -0.74180
C126        C  0.51878097  0.04528875  0.62949579     0.96540
C127        C  0.42128402  0.05458181  0.66973806     0.92940
Al128      Al  0.44247658  0.00817617  0.65244910     1.55560
O129        O  0.47305810  0.08082694  0.62668825    -0.78800
C130        C  0.47508427  0.97602225  0.62265481     0.97110
C131        C  0.47403258  0.01708227  0.69354592     0.91990
O132        O  0.47469388  0.04037433  0.68763768    -0.84120
O133        O  0.69613925  0.23276686  0.08940287    -0.83580
C134        C  0.73808872  0.31867531  0.13571585     0.95780
O135        O  0.73697057  0.29678359  0.14487054    -0.72690
O136        O  0.68993094  0.28481299  0.14321496    -0.76290
Al137      Al  0.71965922  0.26772541  0.13366685     1.48980
C138        C  0.66830881  0.28106312  0.13416932     0.91030
O139        O  0.68058293  0.30378687  0.07935292    -0.82510
O140        O  0.74620656  0.27216569  0.06182090    -0.76060
Al141      Al  0.68925113  0.26868075  0.08470552     1.90120
O142        O  0.71844338  0.31535412  0.06737113    -0.75130
O143        O  0.76818670  0.28063472  0.10534341    -0.74980
O144        O  0.73736798  0.32218915  0.11224669    -0.80640
O145        O  0.75002125  0.25023467  0.12685788    -0.78850
O146        O  0.71658171  0.27735850  0.10196329    -1.14980
O147        O  0.70274230  0.23617830  0.13010274    -0.74180
C148        C  0.69958801  0.22261696  0.11085044     0.96540
C149        C  0.69543433  0.32048564  0.07075700     0.92940
Al150      Al  0.74064825  0.29601042  0.08778419     1.55560
O151        O  0.66581153  0.26986971  0.11316767    -0.78800
C152        C  0.76963746  0.26050041  0.11803785     0.97110
C153        C  0.72955400  0.26557297  0.04616762     0.91990
O154        O  0.70637971  0.26614784  0.05230216    -0.84120
O155        O  0.64940443  0.51092382  0.04675406    -0.83580
C156        C  0.60044733  0.42659940  0.00484774     0.95780
O157        O  0.59222424  0.44886604  0.00556845    -0.72690
O158        O  0.59412406  0.46039411  0.05271018    -0.76290
Al159      Al  0.60432789  0.47731508  0.02320085     1.48980
C160        C  0.60323302  0.46379395  0.07435838     0.91030
O161        O  0.65792730  0.43990428  0.06271974    -0.82510
O162        O  0.67609030  0.47011349  0.99698477    -0.76060
Al163      Al  0.65314966  0.47494652  0.05377456     1.90120
O164        O  0.66892041  0.42725720  0.02480219    -0.75130
O165        O  0.63239536  0.46340152  0.97503051    -0.74980
O166        O  0.62376632  0.42213818  0.00589219    -0.80640
O167        O  0.61201884  0.49470574  0.99301199    -0.78850
O168        O  0.63570952  0.46658773  0.02648420    -1.14980
O169        O  0.60861977  0.50854669  0.04038927    -0.74180
C170        C  0.62822305  0.52161179  0.04335366     0.96540
C171        C  0.66669201  0.42312595  0.04811251     0.92940
Al172      Al  0.64926292  0.44734151  0.00256897     1.55560
O173        O  0.62453040  0.47442334  0.07702023    -0.78800
C174        C  0.62045502  0.48400352  0.97345907     0.97110
C175        C  0.69182471  0.47655702  0.01359823     0.91990
O176        O  0.68559393  0.47659634  0.03672242    -0.84120
O177        O  0.08837704  0.69643246  0.23178868    -0.83580
C178        C  0.13745555  0.73627534  0.31719127     0.95780
O179        O  0.14638701  0.73365683  0.29541663    -0.72690
O180        O  0.14148360  0.68687869  0.28414349    -0.76290
Al181      Al  0.13388991  0.71680864  0.26681387     1.48980
C182        C  0.13151301  0.66578455  0.27986524     0.91030
O183        O  0.07719651  0.68057446  0.30224223    -0.82510
O184        O  0.06271333  0.74699927  0.27243054    -0.76060
Al185      Al  0.08326061  0.68931371  0.26754362     1.90120
O186        O  0.06921478  0.71901744  0.31593175    -0.75130
O187        O  0.10756694  0.76703575  0.27871509    -0.74980
O188        O  0.11406874  0.73694335  0.32082174    -0.80640
O189        O  0.12898794  0.74729358  0.24919170    -0.78850
O190        O  0.10200664  0.71566018  0.27653130    -1.14980
O191        O  0.12943399  0.69976643  0.23543956    -0.74180
C192        C  0.11007906  0.69826645  0.22176052     0.96540
C193        C  0.07078857  0.69553297  0.31977567     0.92940
Al194      Al  0.08930240  0.74051170  0.29529747     1.55560
O195        O  0.11048739  0.66439843  0.26851792    -0.78800
C196        C  0.12109291  0.76750954  0.25904854     0.97110
C197        C  0.04658356  0.73105707  0.26533550     0.91990
O198        O  0.05192760  0.70775326  0.26524824    -0.84120
O199        O  0.04282338  0.65092797  0.51009272    -0.83580
C200        C  0.00615398  0.60194553  0.42354736     0.95780
O201        O  0.00609644  0.59319480  0.44559212    -0.72690
O202        O  0.05251558  0.59721156  0.45887223    -0.76290
Al203      Al  0.02200274  0.60560273  0.47491211     1.48980
C204        C  0.07360277  0.60748111  0.46250869     0.91030
O205        O  0.05979175  0.66225812  0.43958315    -0.82510
O206        O  0.99249867  0.67646691  0.46805830    -0.76060
Al207      Al  0.05032234  0.65601669  0.47433476     1.90120
O208        O  0.02171224  0.67098861  0.42588760    -0.75130
O209        O  0.97285791  0.63174212  0.46006883    -0.74980
O210        O  0.00552930  0.62537129  0.41974757    -0.80640
O211        O  0.99081386  0.61139439  0.49137124    -0.78850
O212        O  0.02408297  0.63740691  0.46491527    -1.14980
O213        O  0.03785918  0.60999828  0.50682458    -0.74180
C214        C  0.04002286  0.62941060  0.52032110     0.96540
C215        C  0.04507490  0.66909274  0.42200044     0.92940
Al216      Al  0.00004690  0.65014193  0.44514490     1.55560
O217        O  0.07505359  0.62870243  0.47349706    -0.78800
C218        C  0.97123415  0.61952262  0.48046021     0.97110
C219        C  0.00823297  0.69247919  0.47598514     0.91990
O220        O  0.03157880  0.68722558  0.47658875    -0.84120
O221        O  0.83833146  0.50832746  0.94838269    -0.83580
C222        C  0.88526691  0.42103789  0.98720345     0.95780
O223        O  0.89426291  0.44300132  0.98694259    -0.72690
O224        O  0.89195801  0.45646290  0.94041437    -0.76290
Al225      Al  0.88266751  0.47248331  0.97067349     1.48980
C226        C  0.88275239  0.46112467  0.91905958     0.91030
O227        O  0.82747601  0.43800815  0.93102758    -0.82510
O228        O  0.81100111  0.46635674  0.99781298    -0.76060
Al229      Al  0.83327963  0.47260953  0.94079483     1.90120
O230        O  0.81702310  0.42419535  0.96862587    -0.75130
O231        O  0.85477854  0.45785876  0.01889146    -0.74980
O232        O  0.86183439  0.41744247  0.98672181    -0.80640
O233        O  0.87598773  0.48895158  0.00151857    -0.78850
O234        O  0.85091875  0.46287450  0.96758074    -1.14980
O235        O  0.87904364  0.50445255  0.95479270    -0.74180
C236        C  0.85998441  0.51820129  0.95133771     0.96540
C237        C  0.82016214  0.42034916  0.94539806     0.92940
Al238      Al  0.83720178  0.44316083  0.99113678     1.55560
O239        O  0.86149376  0.47197683  0.91707334    -0.78800
C240        C  0.86726975  0.47806500  0.02082891     0.97110
C241        C  0.79535012  0.47413495  0.98169696     0.91990
O242        O  0.80125459  0.47479614  0.95849732    -0.84120
O243        O  0.79380498  0.23075859  0.89854904    -0.83580
C244        C  0.75309871  0.31740681  0.85223752     0.95780
O245        O  0.75458645  0.29557573  0.84314239    -0.72690
O246        O  0.80179292  0.28435268  0.84611135    -0.76290
Al247      Al  0.77211560  0.26685027  0.85462463     1.48980
C248        C  0.82321591  0.27997411  0.85537493     0.91030
O249        O  0.81070334  0.30087833  0.91059604    -0.82510
O250        O  0.74450763  0.27201277  0.92682162    -0.76060
Al251      Al  0.80136220  0.26644592  0.90417511     1.90120
O252        O  0.77274621  0.31504483  0.91987156    -0.75130
O253        O  0.72327622  0.27896784  0.88292010    -0.74980
O254        O  0.75362685  0.32089887  0.87563659    -0.80640
O255        O  0.74190987  0.24913248  0.86082410    -0.78850
O256        O  0.77455882  0.27610413  0.88654496    -1.14980
O257        O  0.78942700  0.23547413  0.85775408    -0.74180
C258        C  0.79164804  0.22126824  0.87664861     0.96540
C259        C  0.79619292  0.31849009  0.91772185     0.92940
Al260      Al  0.75045658  0.29507183  0.90029283     1.55560
O261        O  0.82527184  0.26798007  0.87602479    -0.78800
C262        C  0.72216918  0.25903857  0.86982693     0.97110
C263        C  0.76079166  0.26451458  0.94239822     0.91990
O264        O  0.78388721  0.26375841  0.93620006    -0.84120
O265        O  0.76443279  0.76549666  0.89754453    -0.83580
C266        C  0.66351762  0.77177889  0.86070070     0.95780
O267        O  0.68172696  0.75963903  0.85165006    -0.72690
O268        O  0.71761363  0.79340879  0.84594459    -0.76290
Al269      Al  0.71682894  0.76055182  0.85960612     1.48980
C270        C  0.73463348  0.80923913  0.85115445     0.91030
O271        O  0.71930884  0.81887742  0.90795073    -0.82510
O272        O  0.70597903  0.75407434  0.93767023    -0.76060
Al273      Al  0.74016358  0.79131704  0.90233381     1.90120
O274        O  0.68519306  0.80044444  0.92265845    -0.75130
O275        O  0.68442971  0.73102129  0.89773405    -0.74980
O276        O  0.66428819  0.77894726  0.88334636    -0.80640
O277        O  0.71640196  0.72751522  0.87122092    -0.78850
O278        O  0.71468976  0.77263157  0.89065848    -1.14980
O279        O  0.75236259  0.75750680  0.85887686    -0.74180
C280        C  0.76862424  0.75627732  0.87612278     0.96540
C281        C  0.69776641  0.82025155  0.91766406     0.92940
Al282      Al  0.68719608  0.76650831  0.90900978     1.55560
O283        O  0.74790434  0.80703038  0.87082396    -0.78800
C284        C  0.69932419  0.71758342  0.88435495     0.97110
C285        C  0.72564449  0.76348044  0.94741218     0.91990
O286        O  0.73801695  0.78015878  0.93596759    -0.84120
O287        O  0.64422641  0.97178117  0.01320295    -0.83580
C288        C  0.60814529  0.97171827  0.91241276     0.95780
O289        O  0.60037074  0.98504772  0.93041148    -0.72690
O290        O  0.59223340  0.94971852  0.96416019    -0.76290
Al291      Al  0.60760994  0.98162660  0.96563934     1.48980
C292        C  0.59681254  0.93181006  0.97919699     0.91030
O293        O  0.65363738  0.92080771  0.96562620    -0.82510
O294        O  0.68540180  0.98529492  0.95559371    -0.76060
Al295      Al  0.64843984  0.94738377  0.98757851     1.90120
O296        O  0.66999635  0.94019050  0.93294473    -0.75130
O297        O  0.64621779  0.01026931  0.93416539    -0.74980
O298        O  0.63033012  0.96300989  0.91304930    -0.80640
O299        O  0.62134383  0.01391752  0.96736662    -0.78850
O300        O  0.63795399  0.96786992  0.96312920    -1.14980
O301        O  0.60623463  0.98248044  0.00125735    -0.74180
C302        C  0.62335466  0.98198812  0.01766591     0.96540
C303        C  0.66452552  0.92003901  0.94470218     0.92940
Al304      Al  0.65664560  0.97429586  0.93602841     1.55560
O305        O  0.61609753  0.93223947  0.99328956    -0.78800
C306        C  0.63396077  0.02387147  0.94990097     0.97110
C307        C  0.69457188  0.97482706  0.97505486     0.91990
O308        O  0.68251240  0.95786876  0.98655129    -0.84120
O309        O  0.72277406  0.89382371  0.22687779    -0.83580
C310        C  0.71770834  0.85928160  0.32805672     0.95780
O311        O  0.73050592  0.85005596  0.31040567    -0.72690
O312        O  0.69657610  0.84249537  0.27530733    -0.76290
Al313      Al  0.72909682  0.85686434  0.27511885     1.48980
C314        C  0.68005655  0.84704065  0.25878444     0.91030
O315        O  0.66947583  0.90271402  0.27237406    -0.82510
O316        O  0.73427893  0.93543248  0.28301572    -0.76060
Al317      Al  0.69682904  0.89802535  0.25120029     1.90120
O318        O  0.68832322  0.92036434  0.30482778    -0.75130
O319        O  0.75799929  0.89635683  0.30616980    -0.74980
O320        O  0.71039081  0.88190237  0.32676216    -0.80640
O321        O  0.76181801  0.86923201  0.27477845    -0.78850
O322        O  0.71633233  0.88767331  0.27649743    -1.14980
O323        O  0.73171417  0.85542837  0.23962037    -0.74180
C324        C  0.73281870  0.87258902  0.22319570     0.96540
C325        C  0.66836735  0.91402241  0.29312193     0.92940
Al326      Al  0.72243648  0.90708587  0.30311236     1.55560
O327        O  0.68229393  0.86577084  0.24418336    -0.78800
C328        C  0.77156887  0.88276540  0.29162128     0.97110
C329        C  0.72228299  0.94501047  0.26470232     0.91990
O330        O  0.70594531  0.93234095  0.25308557    -0.84120
O331        O  0.52170221  0.01626482  0.34556696    -0.83580
C332        C  0.51946293  0.91609887  0.38331787     0.95780
O333        O  0.50702099  0.93465391  0.39125792    -0.72690
O334        O  0.54370058  0.96720259  0.39776869    -0.76290
Al335      Al  0.51141888  0.96962978  0.38337465     1.48980
C336        C  0.56178672  0.98183341  0.39264699     0.91030
O337        O  0.57060337  0.96652930  0.33609213    -0.82510
O338        O  0.50495154  0.95888972  0.30581443    -0.76060
Al339      Al  0.54515113  0.98971893  0.34128223     1.90120
O340        O  0.54943732  0.93459002  0.32035603    -0.75130
O341        O  0.48047201  0.93879387  0.34602557    -0.74980
O342        O  0.52722763  0.91602765  0.36079547    -0.80640
O343        O  0.47879122  0.97231978  0.37070049    -0.78850
O344        O  0.52405294  0.96621889  0.35268168    -1.14980
O345        O  0.51187161  0.00529686  0.38411478    -0.74180
C346        C  0.51204567  0.02128531  0.36657481     0.96540
C347        C  0.57014861  0.94536503  0.32560822     0.92940
Al348      Al  0.51601624  0.93916306  0.33454367     1.55560
O349        O  0.56127227  0.99561147  0.37313257    -0.78800
C350        C  0.46786313  0.95511160  0.35854208     0.97110
C351        C  0.51618164  0.97761747  0.29596025     0.91990
O352        O  0.53397944  0.98843244  0.30741618    -0.84120
O353        O  0.76802151  0.89125402  0.76464875    -0.83580
C354        C  0.77285726  0.85788830  0.66304736     0.95780
O355        O  0.76052299  0.84863102  0.68094746    -0.72690
O356        O  0.79683700  0.84350175  0.71455529    -0.76290
Al357      Al  0.76348003  0.85548022  0.71612495     1.48980
C358        C  0.81359956  0.84917752  0.73054146     0.91030
O359        O  0.81900654  0.90779353  0.71952710    -0.82510
O360        O  0.75457590  0.93414972  0.70648279    -0.76060
Al361      Al  0.79260471  0.89893575  0.74010535     1.90120
O362        O  0.80046275  0.92022407  0.68469309    -0.75130
O363        O  0.73173362  0.89332378  0.68606736    -0.74980
O364        O  0.77976795  0.88058202  0.66417147    -0.80640
O365        O  0.73014908  0.86611269  0.71781574    -0.78850
O366        O  0.77422691  0.88717402  0.71459551    -1.14980
O367        O  0.76271627  0.85249723  0.75169983    -0.74180
C368        C  0.76115086  0.86898735  0.76862890     0.96540
C369        C  0.82018551  0.91706821  0.69787533     0.92940
Al370      Al  0.76703634  0.90568192  0.68751061     1.55560
O371        O  0.81094746  0.86804689  0.74503284    -0.78800
C372        C  0.71924509  0.87935951  0.70135351     0.97110
C373        C  0.76300406  0.94349063  0.72676117     0.91990
O374        O  0.77885695  0.93168925  0.73985163    -0.84120
O375        O  0.97279313  0.01364017  0.64495175    -0.83580
C376        C  0.96640665  0.91269765  0.60974099     0.95780
O377        O  0.97913453  0.93034736  0.60035942    -0.72690
O378        O  0.94542570  0.96589065  0.59403789    -0.76290
Al379      Al  0.97824163  0.96564055  0.60756965     1.48980
C380        C  0.92899716  0.98234872  0.59918455     0.91030
O381        O  0.92010533  0.96809016  0.65560993    -0.82510
O382        O  0.98570176  0.95637132  0.68530233    -0.76060
Al383      Al  0.94726253  0.98924421  0.64992393     1.90120
O384        O  0.93936685  0.93524159  0.67212534    -0.75130
O385        O  0.00801693  0.93370139  0.64565976    -0.74980
O386        O  0.95977444  0.91372622  0.63253713    -0.80640
O387        O  0.01129561  0.96559823  0.61905749    -0.78850
O388        O  0.96630118  0.96391902  0.63866164    -1.14980
O389        O  0.98107074  0.00123801  0.60641208    -0.74180
C390        C  0.98237602  0.01755078  0.62364421     0.96540
C391        C  0.91933652  0.94717933  0.66662354     0.92940
Al392      Al  0.97282604  0.93687241  0.65750561     1.55560
O393        O  0.93135122  0.99637768  0.61832286    -0.78800
C394        C  0.02133439  0.94860151  0.63220913     0.97110
C395        C  0.97558285  0.97569844  0.69503978     0.91990
O396        O  0.95841017  0.98748671  0.68365252    -0.84120
O397        O  0.88870015  0.22893964  0.72434564    -0.83580
C398        C  0.85952741  0.33179908  0.71700695     0.95780
O399        O  0.84996958  0.31461407  0.73004942    -0.72690
O400        O  0.84327985  0.28053146  0.69426996    -0.76290
Al401      Al  0.85535179  0.27921277  0.72760036     1.48980
C402        C  0.84832910  0.26396336  0.67783587     0.91030
O403        O  0.90779139  0.27194253  0.67209530    -0.82510
O404        O  0.93436033  0.28589393  0.73580464    -0.76060
Al405      Al  0.89764865  0.25252952  0.69908010     1.90120
O406        O  0.92088966  0.30708463  0.68965485    -0.75130
O407        O  0.89466617  0.30833214  0.75840758    -0.74980
O408        O  0.88211816  0.32975455  0.70992244    -0.80640
O409        O  0.86614295  0.27777747  0.76080371    -0.78850
O410        O  0.88701082  0.27911494  0.71669106    -1.14980
O411        O  0.85072827  0.24395491  0.72924158    -0.74180
C412        C  0.86649299  0.22651019  0.73211038     0.96540
C413        C  0.91776523  0.29329315  0.67037129     0.92940
Al414      Al  0.90653888  0.30567922  0.72309023     1.55560
O415        O  0.86661697  0.24875538  0.68077531    -0.78800
C416        C  0.88036733  0.29369942  0.77127333     0.97110
C417        C  0.94273009  0.26479859  0.72829758     0.91990
O418        O  0.93027322  0.25159432  0.71304930    -0.84120
O419        O  0.01515343  0.34853222  0.51849240    -0.83580
C420        C  0.91325260  0.38142206  0.52476189     0.95780
O421        O  0.93090366  0.39117459  0.51241660    -0.72690
O422        O  0.96551058  0.39701118  0.54732000    -0.76290
Al423      Al  0.96621839  0.38456239  0.51410751     1.48980
C424        C  0.98197324  0.39183335  0.56373250     0.91030
O425        O  0.96987162  0.33429026  0.57066394    -0.82510
O426        O  0.95814960  0.30599564  0.50539152    -0.76060
Al427      Al  0.99079833  0.34177463  0.54378172     1.90120
O428        O  0.93646060  0.31904142  0.55131193    -0.75130
O429        O  0.93607308  0.34602032  0.48293315    -0.74980
O430        O  0.91462617  0.35851556  0.53104924    -0.80640
O431        O  0.96705871  0.37392294  0.48082255    -0.78850
O432        O  0.96516349  0.35298922  0.52512668    -1.14980
O433        O  0.00171710  0.38707200  0.51203597    -0.74180
C434        C  0.01843912  0.37036073  0.50981101     0.96540
C435        C  0.94876268  0.32366106  0.57128903     0.92940
Al436      Al  0.93844217  0.33386651  0.51808024     1.55560
O437        O  0.99660598  0.37313861  0.56093564    -0.78800
C438        C  0.95089529  0.36016375  0.47020915     0.97110
C439        C  0.97787630  0.29649419  0.51494058     0.91990
O440        O  0.99019363  0.30830997  0.53141948    -0.84120
O441        O  0.89381094  0.76482055  0.76934334    -0.83580
C442        C  0.85777282  0.66402666  0.77499703     0.95780
O443        O  0.84873810  0.68191017  0.76238127    -0.72690
O444        O  0.84312048  0.71686923  0.79682839    -0.76290
Al445      Al  0.85631969  0.71711716  0.76393234     1.48980
C446        C  0.84861910  0.73277339  0.81366743     0.91030
O447        O  0.90552829  0.71920827  0.82160586    -0.82510
O448        O  0.93437355  0.70709444  0.75631860    -0.76060
Al449      Al  0.89914720  0.74034099  0.79465325     1.90120
O450        O  0.92041867  0.68561263  0.80239441    -0.75130
O451        O  0.89417246  0.68537222  0.73371478    -0.74980
O452        O  0.88057265  0.66480439  0.78175873    -0.80640
O453        O  0.86769316  0.71747679  0.73079082    -0.78850
O454        O  0.88754070  0.71509489  0.77567700    -1.14980
O455        O  0.85509721  0.75272810  0.76166259    -0.74180
C456        C  0.87251299  0.76877377  0.75982881     0.96540
C457        C  0.91576447  0.69790117  0.82240405     0.92940
Al458      Al  0.90602191  0.68786348  0.76895268     1.55560
O459        O  0.86761658  0.74706756  0.81125318    -0.78800
C460        C  0.88075012  0.70047908  0.72056818     0.97110
C461        C  0.94411594  0.72672896  0.76588239     0.91990
O462        O  0.93271619  0.73884022  0.78281350    -0.84120
O463        O  0.01509401  0.64350589  0.97257648    -0.83580
C464        C  0.91414936  0.60738723  0.96757245     0.95780
O465        O  0.93254558  0.59769126  0.97886594    -0.72690
O466        O  0.96747113  0.59289670  0.94431294    -0.76290
Al467      Al  0.96761525  0.60545589  0.97752413     1.48980
C468        C  0.98376215  0.59855555  0.92790110     0.91030
O469        O  0.96891171  0.65534731  0.92089589    -0.82510
O470        O  0.95796191  0.68352531  0.98689104    -0.76060
Al471      Al  0.99043849  0.64896546  0.94748600     1.90120
O472        O  0.93573005  0.67037442  0.94081314    -0.75130
O473        O  0.93637165  0.64306027  0.00905828    -0.74980
O474        O  0.91480954  0.63040962  0.96150461    -0.80640
O475        O  0.96796449  0.61590905  0.01093650    -0.78850
O476        O  0.96541868  0.63695134  0.96654775    -1.14980
O477        O  0.00319112  0.60455146  0.97975988    -0.74180
C478        C  0.01917770  0.62202255  0.98169526     0.96540
C479        C  0.94764494  0.66570505  0.92056102     0.92940
Al480      Al  0.93838100  0.65546569  0.97407672     1.55560
O481        O  0.99760197  0.61780566  0.93058320    -0.78800
C482        C  0.95136254  0.62904680  0.02165934     0.97110
C483        C  0.97727942  0.69346049  0.97692546     0.91990
O484        O  0.98883013  0.68239148  0.95943864    -0.84120
O485        O  0.76862236  0.09545138  0.72516254    -0.83580
C486        C  0.76965933  0.13033890  0.82604569     0.95780
O487        O  0.75568052  0.13849203  0.80870145    -0.72690
O488        O  0.79044820  0.14673460  0.77474237    -0.76290
Al489      Al  0.75863826  0.13160245  0.77326996     1.48980
C490        C  0.80816185  0.14254577  0.75943243     0.91030
O491        O  0.81881318  0.08476634  0.77353546    -0.82510
O492        O  0.75318787  0.05416340  0.78238459    -0.76060
Al493      Al  0.79257657  0.09053655  0.75118371     1.90120
O494        O  0.79856223  0.06754952  0.80521851    -0.75130
O495        O  0.72937245  0.09361790  0.80467055    -0.74980
O496        O  0.77728304  0.10776931  0.82533573    -0.80640
O497        O  0.72628774  0.11828746  0.77135104    -0.78850
O498        O  0.77198181  0.10106632  0.77548698    -1.14980
O499        O  0.75775662  0.13324964  0.73771884    -0.74180
C500        C  0.75857371  0.11649263  0.72095386     0.96540
C501        C  0.81900945  0.07316309  0.79410492     0.92940
Al502      Al  0.76500177  0.08214021  0.80234520     1.55560
O503        O  0.80827217  0.12286582  0.74583298    -0.78800
C504        C  0.71605889  0.10613869  0.78892980     0.97110
C505        C  0.76390254  0.04474501  0.76317982     0.91990
O506        O  0.78135416  0.05646610  0.75195994    -0.84120
O507        O  0.97222834  0.97347860  0.84670706    -0.83580
C508        C  0.96739147  0.07455663  0.88202584     0.95780
O509        O  0.98077244  0.05688700  0.89033030    -0.72690
O510        O  0.94610897  0.02209326  0.89729461    -0.76290
Al511      Al  0.97858294  0.02164384  0.88311523     1.48980
C512        C  0.92898658  0.00629817  0.89221535     0.91030
O513        O  0.91931208  0.01869649  0.83465857    -0.82510
O514        O  0.98352968  0.03200402  0.80516869    -0.76060
Al515      Al  0.94676857  0.99797079  0.84129139     1.90120
O516        O  0.93767611  0.05295424  0.82038557    -0.75130
O517        O  0.00730706  0.05344146  0.84449206    -0.74980
O518        O  0.95934121  0.07359941  0.85969522    -0.80640
O519        O  0.01130875  0.02100931  0.87044613    -0.78850
O520        O  0.96574232  0.02347119  0.85231829    -1.14980
O521        O  0.98064905  0.98611152  0.88497197    -0.74180
C522        C  0.98200117  0.96971685  0.86790612     0.96540
C523        C  0.91792600  0.04012689  0.82473162     0.92940
Al524      Al  0.97160211  0.05085057  0.83379740     1.55560
O525        O  0.93068341  0.99198936  0.87313870    -0.78800
C526        C  0.02102725  0.03810484  0.85710285     0.97110
C527        C  0.97459479  0.01189209  0.79589911     0.91990
O528        O  0.95846188  0.99911497  0.80773717    -0.84120
O529        O  0.72597021  0.76729379  0.09832023    -0.83580
C530        C  0.82702559  0.77217508  0.13304227     0.95780
O531        O  0.80938516  0.75919803  0.14205980    -0.72690
O532        O  0.77466013  0.79388215  0.14862251    -0.76290
Al533      Al  0.77409890  0.76104184  0.13504978     1.48980
C534        C  0.75881503  0.81088613  0.14333760     0.91030
O535        O  0.77204878  0.81905499  0.08624633    -0.82510
O536        O  0.78318706  0.75349886  0.05721416    -0.76060
Al537      Al  0.75072482  0.79229814  0.09275577     1.90120
O538        O  0.80496458  0.79949204  0.07038581    -0.75130
O539        O  0.80559646  0.73109287  0.09700045    -0.74980
O540        O  0.82604853  0.77916679  0.11031893    -0.80640
O541        O  0.77338025  0.72802877  0.12327131    -0.78850
O542        O  0.77586865  0.77303620  0.10394862    -1.14980
O543        O  0.73850769  0.75901821  0.13673728    -0.74180
C544        C  0.72208996  0.75782606  0.11964940     0.96540
C545        C  0.79300379  0.81961405  0.07534409     0.92940
Al546      Al  0.80284953  0.76622415  0.08512430     1.55560
O547        O  0.74455488  0.80880599  0.12431539    -0.78800
C548        C  0.79043916  0.71788328  0.11024318     0.97110
C549        C  0.76354878  0.76332930  0.04775031     0.91990
O550        O  0.75180099  0.78047713  0.05923626    -0.84120
O551        O  0.84600954  0.97218271  0.97636271    -0.83580
C552        C  0.88046237  0.96436132  0.07794902     0.95780
O553        O  0.89065618  0.97564299  0.05982865    -0.72690
O554        O  0.89586971  0.94225316  0.02381468    -0.76290
Al555      Al  0.88332866  0.97552499  0.02466871     1.48980
C556        C  0.89068934  0.92681223  0.00647659     0.91030
O557        O  0.83354566  0.91891894  0.02077168    -0.82510
O558        O  0.80469073  0.98414263  0.03337140    -0.76060
Al559      Al  0.84017597  0.94627481  0.00014910     1.90120
O560        O  0.81849446  0.93783045  0.05454379    -0.75130
O561        O  0.84453009  0.00648191  0.05560309    -0.74980
O562        O  0.85742563  0.95857987  0.07674392    -0.80640
O563        O  0.87304519  0.00892005  0.02529043    -0.78850
O564        O  0.85175894  0.96457773  0.02597247    -1.14980
O565        O  0.88471714  0.97904922  0.98920055    -0.74180
C566        C  0.86766791  0.98113526  0.97279040     0.96540
C567        C  0.82324987  0.91793691  0.04205570     0.92940
Al568      Al  0.83274991  0.97132748  0.05287981     1.55560
O569        O  0.87144138  0.92982854  0.99276653    -0.78800
C570        C  0.85895853  0.01935516  0.04125877     0.97110
C571        C  0.79509298  0.97462664  0.01370564     0.91990
O572        O  0.80666915  0.95789978  0.00157374    -0.84120
O573        O  0.09580177  0.72696920  0.76478023    -0.83580
C574        C  0.13043938  0.82821288  0.77131618     0.95780
O575        O  0.14012441  0.81039483  0.75909101    -0.72690
O576        O  0.14650929  0.77486978  0.79280583    -0.76290
Al577      Al  0.13310872  0.77510103  0.75994273     1.48980
C578        C  0.14167998  0.75796463  0.80884920     0.91030
O579        O  0.08550768  0.77197534  0.81809550    -0.82510
O580        O  0.05471272  0.78346550  0.75284712    -0.76060
Al581      Al  0.09094179  0.75096239  0.79071945     1.90120
O582        O  0.06854478  0.80482079  0.79905102    -0.75130
O583        O  0.09430230  0.80625485  0.72987675    -0.74980
O584        O  0.10760879  0.82695871  0.77790257    -0.80640
O585        O  0.12188262  0.77512837  0.72691648    -0.78850
O586        O  0.10191291  0.77649299  0.77176939    -1.14980
O587        O  0.13444353  0.73954400  0.75693335    -0.74180
C588        C  0.11714217  0.72332888  0.75508423     0.96540
C589        C  0.07435430  0.79282986  0.81898936     0.92940
Al590      Al  0.08272427  0.80328098  0.76529686     1.55560
O591        O  0.12276664  0.74367525  0.80620858    -0.78800
C592        C  0.10832034  0.79167866  0.71672106     0.97110
C593        C  0.04512957  0.76417524  0.76322892     0.91990
O594        O  0.05693073  0.75252223  0.78018695    -0.84120
O595        O  0.97732649  0.84570535  0.97188553    -0.83580
C596        C  0.07861678  0.88002960  0.96671326     0.95780
O597        O  0.06087856  0.88879185  0.97966193    -0.72690
O598        O  0.02694388  0.89419453  0.94363197    -0.76290
Al599      Al  0.02563510  0.88172512  0.97677647     1.48980
C600        C  0.01098521  0.88862752  0.92680780     0.91030
O601        O  0.02220743  0.82979960  0.92070728    -0.82510
O602        O  0.03578182  0.80307338  0.98480003    -0.76060
Al603      Al  0.00179902  0.83845100  0.94722038     1.90120
O604        O  0.05737665  0.81753023  0.93866571    -0.75130
O605        O  0.05622409  0.84384854  0.00787843    -0.74980
O606        O  0.07764572  0.85736278  0.95959642    -0.80640
O607        O  0.02413414  0.87062734  0.00993123    -0.78850
O608        O  0.02734355  0.85018353  0.96557599    -1.14980
O609        O  0.99000218  0.88444163  0.97777488    -0.74180
C610        C  0.97322679  0.86776988  0.97921616     0.96540
C611        C  0.04385854  0.82057675  0.91913601     0.92940
Al612      Al  0.05462931  0.83180920  0.97236518     1.55560
O613        O  0.99670597  0.86953309  0.92914655    -0.78800
C614        C  0.04078512  0.85745472  0.02062309     0.97110
C615        C  0.01525714  0.79388484  0.97669883     0.91990
O616        O  0.00219350  0.80567547  0.96082109    -0.84120
O617        O  0.29316543  0.26283425  0.08890178    -0.83580
C618        C  0.25426614  0.17650714  0.13744381     0.95780
O619        O  0.25485875  0.19858997  0.14613647    -0.72690
O620        O  0.30128448  0.21224864  0.14350482    -0.76290
Al621      Al  0.27089336  0.22792855  0.13402448     1.48980
C622        C  0.32260278  0.21673318  0.13409027     0.91030
O623        O  0.31035875  0.19194448  0.07943033    -0.82510
O624        O  0.24350572  0.22078508  0.06293997    -0.76060
Al625      Al  0.30069482  0.22692216  0.08454548     1.90120
O626        O  0.27263080  0.17853998  0.06904091    -0.75130
O627        O  0.22253638  0.21266842  0.10676563    -0.74980
O628        O  0.25476309  0.17249512  0.11409623    -0.80640
O629        O  0.23983443  0.24419269  0.12729242    -0.78850
O630        O  0.27391858  0.21768535  0.10249508    -1.14980
O631        O  0.28660679  0.25983634  0.12965134    -0.74180
C632        C  0.29002710  0.27317657  0.11031969     0.96540
C633        C  0.29579887  0.17430864  0.07232025     0.92940
Al634      Al  0.25026051  0.19783307  0.08921126     1.55560
O635        O  0.32450266  0.22693651  0.11254852    -0.78800
C636        C  0.22050449  0.23301371  0.11899190     0.97110
C637        C  0.25957626  0.22810060  0.04702860     0.91990
O638        O  0.28286232  0.22851690  0.05263738    -0.84120
O639        O  0.33727985  0.98280143  0.04445359    -0.83580
C640        C  0.38826889  0.06777145  0.00537665     0.95780
O641        O  0.39592220  0.04532602  0.00576998    -0.72690
O642        O  0.39276193  0.03264293  0.05254276    -0.76290
Al643      Al  0.38284045  0.01678911  0.02246913     1.48980
C644        C  0.38323562  0.02863360  0.07391339     0.91030
O645        O  0.32819035  0.05333405  0.06218290    -0.82510
O646        O  0.31153046  0.02713646  0.99525001    -0.76060
Al647      Al  0.33332670  0.01869279  0.05213433     1.90120
O648        O  0.32018176  0.06893438  0.02464793    -0.75130
O649        O  0.35560715  0.03255487  0.97435370    -0.74980
O650        O  0.36511819  0.07276221  0.00636220    -0.80640
O651        O  0.37523647  0.00040704  0.99177373    -0.78850
O652        O  0.35153947  0.02798093  0.02555414    -1.14980
O653        O  0.37810673  0.98521877  0.03878151    -0.74180
C654        C  0.35856162  0.97212635  0.04175263     0.96540
C655        C  0.32196128  0.07166312  0.04816546     0.92940
Al656      Al  0.33901506  0.04856380  0.00207558     1.55560
O657        O  0.36152504  0.01866142  0.07597639    -0.78800
C658        C  0.36701751  0.01167254  0.97244095     0.97110
C659        C  0.29584736  0.01853081  0.01087033     0.91990
O660        O  0.30141895  0.01723773  0.03411371    -0.84120
O661        O  0.51223680  0.84876535  0.01216580    -0.83580
C662        C  0.41071085  0.88275194  0.02255930     0.95780
O663        O  0.42860562  0.89275627  0.01086187    -0.72690
O664        O  0.46462355  0.89700096  0.04454545    -0.76290
Al665      Al  0.46367085  0.88541036  0.01099170     1.48980
C666        C  0.48176885  0.89112082  0.06000981     0.91030
O667        O  0.46955332  0.83335983  0.06611376    -0.82510
O668        O  0.45409173  0.80631707  0.00195760    -0.76060
Al669      Al  0.48912024  0.84160416  0.03842839     1.90120
O670        O  0.43411758  0.82054289  0.04872199    -0.75130
O671        O  0.43257671  0.84694576  0.97985751    -0.74980
O672        O  0.41191685  0.85971275  0.02831127    -0.80640
O673        O  0.46286179  0.87566642  0.97748418    -0.78850
O674        O  0.46264638  0.85353724  0.02131378    -1.14980
O675        O  0.49901784  0.88757533  0.00737508    -0.74180
C676        C  0.51544877  0.87078436  0.00401004     0.96540
C677        C  0.44792288  0.82394129  0.06801517     0.92940
Al678      Al  0.43538943  0.83483594  0.01507277     1.55560
O679        O  0.49602296  0.87238484  0.05599352    -0.78800
C680        C  0.44683598  0.86161935  0.96702735     0.97110
C681        C  0.47450111  0.79688866  0.00999145     0.91990
O682        O  0.48788158  0.80870892  0.02549148    -0.84120
O683        O  0.39270833  0.73009474  0.22319588    -0.83580
C684        C  0.36102745  0.83229155  0.21355052     0.95780
O685        O  0.35053441  0.81478008  0.22546802    -0.72690
O686        O  0.34454965  0.77873671  0.19231009    -0.76290
Al687      Al  0.35684846  0.77946959  0.22559335     1.48980
C688        C  0.34932886  0.76117375  0.17697435     0.91030
O689        O  0.40706365  0.77347428  0.16939207    -0.82510
O690        O  0.43573259  0.78614576  0.23465210    -0.76060
Al691      Al  0.39953054  0.75338868  0.19698341     1.90120
O692        O  0.42290987  0.80717391  0.18782550    -0.75130
O693        O  0.39610894  0.80967702  0.25653377    -0.74980
O694        O  0.38410922  0.83055353  0.20801617    -0.80640
O695        O  0.36685513  0.78004740  0.25901811    -0.78850
O696        O  0.38855038  0.77977239  0.21484421    -1.14980
O697        O  0.35430905  0.74411580  0.22936177    -0.74180
C698        C  0.37093650  0.72738455  0.23220949     0.96540
C699        C  0.41797278  0.79445988  0.16810841     0.92940
Al700      Al  0.40820306  0.80627425  0.22136577     1.55560
O701        O  0.36815305  0.74687342  0.18025557    -0.78800
C702        C  0.38118482  0.79579456  0.26943678     0.97110
C703        C  0.44485456  0.76598481  0.22558975     0.91990
O704        O  0.43301731  0.75392546  0.20898458    -0.84120
O705        O  0.58833921  0.19505608  0.72881637    -0.83580
C706        C  0.63628729  0.23590265  0.81427398     0.95780
O707        O  0.64514151  0.23469579  0.79232218    -0.72690
O708        O  0.64222637  0.18761260  0.78069677    -0.76290
Al709      Al  0.63320586  0.21748840  0.76362387     1.48980
C710        C  0.63278479  0.16615211  0.77685956     0.91030
O711        O  0.57808601  0.17918837  0.79945370    -0.82510
O712        O  0.56148613  0.24531490  0.76968513    -0.76060
Al713      Al  0.58357732  0.18809564  0.76467876     1.90120
O714        O  0.56820325  0.21722171  0.81282371    -0.75130
O715        O  0.60553995  0.26651134  0.77652956    -0.74980
O716        O  0.61290093  0.23572969  0.81806126    -0.80640
O717        O  0.62683934  0.24798096  0.74616486    -0.78850
O718        O  0.60145968  0.21502977  0.77354251    -1.14980
O719        O  0.62921665  0.20046648  0.73229065    -0.74180
C720        C  0.60995162  0.19757497  0.71872570     0.96540
C721        C  0.57089946  0.19391069  0.81684885     0.92940
Al722      Al  0.58803853  0.23927034  0.79260646     1.55560
O723        O  0.61168220  0.16407839  0.76571039    -0.78800
C724        C  0.61828561  0.26775770  0.75640247     0.97110
C725        C  0.54562557  0.22906009  0.76268177     0.91990
O726        O  0.55149714  0.20581758  0.76245565    -0.84120
O727        O  0.54677883  0.15206370  0.00806254    -0.83580
C728        C  0.50586201  0.10696928  0.92106433     0.95780
O729        O  0.50877637  0.09697345  0.94236025    -0.72690
O730        O  0.55576340  0.10042430  0.95374829    -0.76290
Al731      Al  0.52589607  0.10791642  0.97145878     1.48980
C732        C  0.57702840  0.10965996  0.95877565     0.91030
O733        O  0.56249598  0.16478021  0.93739220    -0.82510
O734        O  0.49655020  0.17919606  0.96963916    -0.76060
Al735      Al  0.55402696  0.15821126  0.97232373     1.90120
O736        O  0.52404086  0.17518184  0.92580726    -0.75130
O737        O  0.47602789  0.13536589  0.96089266    -0.74980
O738        O  0.50563179  0.13052767  0.91844646    -0.80640
O739        O  0.49558829  0.11258125  0.98944941    -0.78850
O740        O  0.52740374  0.14012431  0.96302377    -1.14980
O741        O  0.54304016  0.11112362  0.00293436    -0.74180
C742        C  0.54420464  0.13001655  0.01732317     0.96540
C743        C  0.54708889  0.17211604  0.92055669     0.92940
Al744      Al  0.50255585  0.15402249  0.94522618     1.55560
O745        O  0.57860728  0.13044869  0.97063908    -0.78800
C746        C  0.47551558  0.12156146  0.98031216     0.97110
C747        C  0.51254647  0.19547622  0.97616596     0.91990
O748        O  0.53591556  0.19018270  0.97545833    -0.84120
O749        O  0.02057995  0.51308863  0.84676304    -0.83580
C750        C  0.02160029  0.41223080  0.88315288     0.95780
O751        O  0.01031506  0.43080232  0.89265822    -0.72690
O752        O  0.04630656  0.46428640  0.89785117    -0.76290
Al753      Al  0.01321326  0.46597309  0.88505521     1.48980
C754        C  0.06341317  0.47991948  0.89237553     0.91030
O755        O  0.07032941  0.46422512  0.83637580    -0.82510
O756        O  0.00333870  0.45676663  0.80764762    -0.76060
Al757      Al  0.04467107  0.48718328  0.84183205     1.90120
O758        O  0.04866885  0.43285752  0.81980915    -0.75130
O759        O  0.98074697  0.43558967  0.84806820    -0.74980
O760        O  0.02796160  0.41278703  0.86023960    -0.80640
O761        O  0.97988250  0.46789954  0.87432247    -0.78850
O762        O  0.02431157  0.46325715  0.85374955    -1.14980
O763        O  0.01263911  0.50172078  0.88576468    -0.74180
C764        C  0.01158511  0.51773584  0.86821213     0.96540
C765        C  0.06946736  0.44345942  0.82512705     0.92940
Al766      Al  0.01571549  0.43658726  0.83532444     1.55560
O767        O  0.06140248  0.49392827  0.87316340    -0.78800
C768        C  0.96858781  0.45133315  0.86164936     0.97110
C769        C  0.01516946  0.47458799  0.79700127     0.91990
O770        O  0.03325008  0.48541941  0.80794104    -0.84120
O771        O  0.22491147  0.39639208  0.72856265    -0.83580
C772        C  0.21558470  0.35926053  0.82883738     0.95780
O773        O  0.22787611  0.35012926  0.81085321    -0.72690
O774        O  0.19429368  0.34589750  0.77483578    -0.76290
Al775      Al  0.22747786  0.35838448  0.77594377     1.48980
C776        C  0.17853258  0.35167869  0.75795605     0.91030
O777        O  0.17115969  0.40932117  0.77164714    -0.82510
O778        O  0.23499525  0.43710216  0.78763391    -0.76060
Al779      Al  0.19875476  0.40217234  0.75190614     1.90120
O780        O  0.18833045  0.42160250  0.80733908    -0.75130
O781        O  0.25763412  0.39618357  0.80842475    -0.74980
O782        O  0.20921549  0.38216077  0.82824514    -0.80640
O783        O  0.26073729  0.36899976  0.77687388    -0.78850
O784        O  0.21630482  0.38990058  0.77792330    -1.14980
O785        O  0.23096247  0.35736095  0.74051706    -0.74180
C786        C  0.23354101  0.37473880  0.72456202     0.96540
C787        C  0.16912334  0.41824851  0.79341276     0.92940
Al788      Al  0.22221185  0.40791828  0.80567592     1.55560
O789        O  0.18172809  0.37102566  0.74428018    -0.78800
C790        C  0.27083810  0.38227636  0.79374081     0.97110
C791        C  0.22677952  0.44687499  0.76744570     0.91990
O792        O  0.21112948  0.43528661  0.75400702    -0.84120
O793        O  0.73175759  0.58983110  0.19658233    -0.83580
C794        C  0.81858864  0.63568423  0.23723652     0.95780
O795        O  0.79679063  0.64510156  0.23626538    -0.72690
O796        O  0.78371973  0.64326328  0.18966886    -0.76290
Al797      Al  0.76723259  0.63405405  0.21974926     1.48980
C798        C  0.77977013  0.63388855  0.16824307     0.91030
O799        O  0.80250695  0.57891110  0.18073663    -0.82510
O800        O  0.77123027  0.56281634  0.24680977    -0.76060
Al801      Al  0.76754168  0.58478107  0.18966375     1.90120
O802        O  0.81408499  0.56688532  0.21857849    -0.75130
O803        O  0.78105009  0.60623604  0.26818181    -0.74980
O804        O  0.82189364  0.61214087  0.23658355    -0.80640
O805        O  0.75032487  0.62763700  0.25054029    -0.78850
O806        O  0.77662164  0.60226138  0.21671552    -1.14980
O807        O  0.73529493  0.63053054  0.20356120    -0.74180
C808        C  0.72170084  0.61136041  0.19989595     0.96540
C809        C  0.81888552  0.56956869  0.19545166     0.92940
Al810      Al  0.79546864  0.58811087  0.24063194     1.55560
O811        O  0.76868786  0.61282341  0.16606206    -0.78800
C812        C  0.76101714  0.61898787  0.26998654     0.97110
C813        C  0.76444720  0.54700645  0.23039289     0.91990
O814        O  0.76487524  0.55276520  0.20716121    -0.84120
O815        O  0.00888557  0.54339869  0.15111718    -0.83580
C816        C  0.92196975  0.50184213  0.10657663     0.95780
O817        O  0.94354606  0.50305486  0.09664609    -0.72690
O818        O  0.95678353  0.54968489  0.09788473    -0.76290
Al819      Al  0.97333157  0.51960536  0.10717130     1.48980
C820        C  0.96103038  0.57122341  0.10689250     0.91030
O821        O  0.93816730  0.55852237  0.16196578    -0.82510
O822        O  0.97079611  0.49276032  0.17818581    -0.76060
Al823      Al  0.97320754  0.54999695  0.15622511     1.90120
O824        O  0.92754367  0.52073620  0.17502167    -0.75130
O825        O  0.96012473  0.47102840  0.13522751    -0.74980
O826        O  0.91913596  0.50240490  0.13013378    -0.80640
O827        O  0.99039380  0.48884273  0.11340561    -0.78850
O828        O  0.96431254  0.52271152  0.13898108    -1.14980
O829        O  0.00526048  0.53581900  0.11052787    -0.74180
C830        C  0.01883656  0.53986364  0.12962499     0.96540
C831        C  0.92201047  0.54362760  0.17143090     0.92940
Al832      Al  0.94594950  0.49863576  0.15353521     1.55560
O833        O  0.97189834  0.57354057  0.12803323    -0.78800
C834        C  0.97991063  0.46930469  0.12211507     0.97110
C835        C  0.97748538  0.50925126  0.19394263     0.91990
O836        O  0.97627445  0.53256421  0.18836369    -0.84120
O837        O  0.75894361  0.40313913  0.69312032    -0.83580
C838        C  0.67280067  0.35467223  0.73229711     0.95780
O839        O  0.69484526  0.34580082  0.73148845    -0.72690
O840        O  0.70833342  0.34860352  0.68515948    -0.76290
Al841      Al  0.72432211  0.35781547  0.71533545     1.48980
C842        C  0.71219895  0.35818906  0.66383211     0.91030
O843        O  0.68835851  0.41285562  0.67673276    -0.82510
O844        O  0.71837822  0.42849291  0.74346483    -0.76060
Al845      Al  0.72323296  0.40751885  0.68592994     1.90120
O846        O  0.67600626  0.42393572  0.71464635    -0.75130
O847        O  0.70935186  0.38449421  0.76395076    -0.74980
O848        O  0.66898015  0.37815486  0.73181243    -0.80640
O849        O  0.74082959  0.36426692  0.74624424    -0.78850
O850        O  0.71422908  0.38943170  0.71262257    -1.14980
O851        O  0.75627612  0.36227488  0.69939134    -0.74180
C852        C  0.76944335  0.38184065  0.69631288     0.96540
C853        C  0.67166375  0.42163535  0.69140136     0.92940
Al854      Al  0.69480681  0.40275647  0.73654937     1.55560
O855        O  0.72273247  0.37960267  0.66183043    -0.78800
C856        C  0.72970918  0.37225182  0.76572524     0.97110
C857        C  0.72553375  0.44465338  0.72753884     0.91990
O858        O  0.72529639  0.43944294  0.70413241    -0.84120
O859        O  0.48079140  0.44725408  0.65082341    -0.83580
C860        C  0.56745026  0.48940001  0.60608276     0.95780
O861        O  0.54580424  0.48821246  0.59635521    -0.72690
O862        O  0.53315322  0.44131523  0.59744368    -0.76290
Al863      Al  0.51629081  0.47120544  0.60694131     1.48980
C864        C  0.52872626  0.41968946  0.60618994     0.91030
O865        O  0.55177127  0.43207660  0.66118832    -0.82510
O866        O  0.51903357  0.49754999  0.67848772    -0.76060
Al867      Al  0.51659879  0.44055434  0.65580419     1.90120
O868        O  0.56225508  0.46982262  0.67438408    -0.75130
O869        O  0.52904974  0.51963085  0.63547217    -0.74980
O870        O  0.57041036  0.48869026  0.62962865    -0.80640
O871        O  0.49893324  0.50171284  0.61349614    -0.78850
O872        O  0.52535967  0.46798670  0.63873278    -1.14980
O873        O  0.48456849  0.45459016  0.61019572    -0.74180
C874        C  0.47089188  0.45070078  0.62925976     0.96540
C875        C  0.56805002  0.44709740  0.67026970     0.92940
Al876      Al  0.54365905  0.49203389  0.65336588     1.55560
O877        O  0.51780393  0.41723282  0.62732126    -0.78800
C878        C  0.50915076  0.52124485  0.62252622     0.97110
C879        C  0.51268906  0.48089028  0.69424594     0.91990
O880        O  0.51375200  0.45764761  0.68829989    -0.84120
O881        O  0.69513547  0.75967834  0.40180681    -0.83580
C882        C  0.73696246  0.67297319  0.35667436     0.95780
O883        O  0.73599509  0.69473275  0.34713543    -0.72690
O884        O  0.68924250  0.70773948  0.34814123    -0.76290
Al885      Al  0.71919230  0.72431304  0.35786718     1.48980
C886        C  0.66759351  0.71178862  0.35699962     0.91030
O887        O  0.67966445  0.68882659  0.41212302    -0.82510
O888        O  0.74533592  0.72082818  0.42928558    -0.76060
Al889      Al  0.68834003  0.72389686  0.40668802     1.90120
O890        O  0.71734437  0.67796317  0.42504964    -0.75130
O891        O  0.76734206  0.71071336  0.38631125    -0.74980
O892        O  0.73603884  0.66978217  0.38019314    -0.80640
O893        O  0.74985467  0.74136436  0.36469015    -0.78850
O894        O  0.71575318  0.71501260  0.38958151    -1.14980
O895        O  0.70282988  0.75613537  0.36124224    -0.74180
C896        C  0.69887631  0.76970013  0.38036026     0.96540
C897        C  0.69468132  0.67228000  0.42070450     0.92940
Al898      Al  0.73962379  0.69637377  0.40410038     1.55560
O899        O  0.66504582  0.72269553  0.37814198    -0.78800
C900        C  0.76923453  0.73074803  0.37361051     0.97110
C901        C  0.72875501  0.72738390  0.44503639     0.91990
O902        O  0.70550675  0.72662248  0.43912335    -0.84120
O903        O  0.64924750  0.48264022  0.44630748    -0.83580
C904        C  0.60409471  0.57004294  0.48671332     0.95780
O905        O  0.59477473  0.54819932  0.48633764    -0.72690
O906        O  0.59581413  0.53496698  0.43963278    -0.76290
Al907      Al  0.60555724  0.51861322  0.46966339     1.48980
C908        C  0.60458288  0.53047364  0.41803809     0.91030
O909        O  0.65979057  0.55242181  0.42895152    -0.82510
O910        O  0.67751936  0.52336488  0.49527486    -0.76060
Al911      Al  0.65421957  0.51808008  0.43871321     1.90120
O912        O  0.67214022  0.56580893  0.46616117    -0.75130
O913        O  0.63443430  0.53279229  0.51737129    -0.74980
O914        O  0.62755811  0.57340289  0.48537602    -0.80640
O915        O  0.61266071  0.50190977  0.50035652    -0.78850
O916        O  0.63730013  0.52784334  0.46591920    -1.14980
O917        O  0.60864924  0.48666391  0.45355028    -0.74180
C918        C  0.62765292  0.47290434  0.44968754     0.96540
C919        C  0.66873105  0.56951716  0.44293166     0.92940
Al920      Al  0.65183168  0.54720676  0.48919755     1.55560
O921        O  0.62549535  0.51904051  0.41559978    -0.78800
C922        C  0.62170185  0.51273892  0.51955190     0.97110
C923        C  0.69290521  0.51560201  0.47890172     0.91990
O924        O  0.68679944  0.51553568  0.45571962    -0.84120
O925        O  0.39998065  0.69297099  0.76043286    -0.83580
C926        C  0.35414513  0.73465940  0.67456111     0.95780
O927        O  0.34454945  0.73308667  0.69622192    -0.72690
O928        O  0.34704077  0.68598012  0.70759445    -0.76290
Al929      Al  0.35558056  0.71560406  0.72522052     1.48980
C930        C  0.35632574  0.66449795  0.71159301     0.91030
O931        O  0.41113545  0.67832355  0.68946758    -0.82510
O932        O  0.42669585  0.74383945  0.72270055    -0.76060
Al933      Al  0.40524226  0.68636563  0.72463558     1.90120
O934        O  0.42296274  0.71666708  0.67911456    -0.75130
O935        O  0.38301702  0.76483494  0.71349550    -0.74980
O936        O  0.37771347  0.73455063  0.67151602    -0.80640
O937        O  0.36136841  0.74583615  0.74324563    -0.78850
O938        O  0.38750835  0.71339611  0.71610709    -1.14980
O939        O  0.35908203  0.69820718  0.75652729    -0.74180
C940        C  0.37829979  0.69579464  0.77030624     0.96540
C941        C  0.42011426  0.69371173  0.67346204     0.92940
Al942      Al  0.40151425  0.73805267  0.69819412     1.55560
O943        O  0.37726562  0.66231860  0.72298194    -0.78800
C944        C  0.37001260  0.76575800  0.73342078     0.97110
C945        C  0.44279869  0.72744780  0.72887688     0.91990
O946        O  0.43728965  0.70412298  0.72770205    -0.84120
O947        O  0.44416367  0.65343312  0.48201883    -0.83580
C948        C  0.48509341  0.60785444  0.56866376     0.95780
O949        O  0.48414570  0.59833805  0.54693329    -0.72690
O950        O  0.43735613  0.60018148  0.53438869    -0.76290
Al951      Al  0.46730316  0.60925044  0.51753842     1.48980
C952        C  0.41586537  0.60942087  0.53036223     0.91030
O953        O  0.42863431  0.66415110  0.55279843    -0.82510
O954        O  0.49457330  0.68053441  0.52094742    -0.76060
Al955      Al  0.43731214  0.65853911  0.51777523     1.90120
O956        O  0.46647592  0.67660496  0.56387863    -0.75130
O957        O  0.51590739  0.63706375  0.53073780    -0.74980
O958        O  0.48453817  0.63141118  0.57183437    -0.80640
O959        O  0.49791188  0.61555604  0.50030280    -0.78850
O960        O  0.46442538  0.64109363  0.52671218    -1.14980
O961        O  0.45075659  0.61266647  0.48584299    -0.74180
C962        C  0.44741165  0.63181024  0.47213474     0.96540
C963        C  0.44354124  0.67315081  0.56918283     0.92940
Al964      Al  0.48848558  0.65530976  0.54529799     1.55560
O965        O  0.41363085  0.63039552  0.51906272    -0.78800
C966        C  0.51748473  0.62423699  0.51074383     0.97110
C967        C  0.47815978  0.69643421  0.51431358     0.91990
O968        O  0.45487239  0.69071319  0.51497977    -0.84120
O969        O  0.26789986  0.60092217  0.22675161    -0.83580
C970        C  0.27088473  0.63472067  0.32798552     0.95780
O971        O  0.25782650  0.64379034  0.31041085    -0.72690
O972        O  0.29246226  0.65182152  0.27597954    -0.76290
Al973      Al  0.26001561  0.63733047  0.27500990     1.48980
C974        C  0.30963744  0.64719593  0.26014260     0.91030
O975        O  0.31943469  0.59047843  0.27347510    -0.82510
O976        O  0.25376339  0.55949317  0.28244216    -0.76060
Al977      Al  0.29277323  0.59604514  0.25169417     1.90120
O978        O  0.29940590  0.57272609  0.30512076    -0.75130
O979        O  0.23056517  0.59817221  0.30562919    -0.74980
O980        O  0.27823586  0.61207465  0.32672579    -0.80640
O981        O  0.22728270  0.62481277  0.27381016    -0.78850
O982        O  0.27276000  0.60649165  0.27653683    -1.14980
O983        O  0.25826004  0.63909197  0.23942683    -0.74180
C984        C  0.25766571  0.62195534  0.22297422     0.96540
C985        C  0.31970806  0.57880052  0.29400204     0.92940
Al986      Al  0.26592561  0.58704085  0.30297140     1.55560
O987        O  0.30821180  0.62816424  0.24580530    -0.78800
C988        C  0.21721534  0.61113213  0.29037780     0.97110
C989        C  0.26435348  0.55028010  0.26308818     0.91990
O990        O  0.28211631  0.56191910  0.25239262    -0.84120
O991        O  0.47037003  0.47860743  0.34595881    -0.83580
C992        C  0.46640246  0.57923057  0.38246168     0.95780
O993        O  0.47881108  0.56115654  0.39144963    -0.72690
O994        O  0.44390067  0.52672384  0.39729582    -0.76290
Al995      Al  0.47667724  0.52594286  0.38385917     1.48980
C996        C  0.42698303  0.51079752  0.39212511     0.91030
O997        O  0.41854327  0.52494488  0.33595196    -0.82510
O998        O  0.48398207  0.53576796  0.30595322    -0.76060
Al999      Al  0.44517755  0.50338781  0.34138842     1.90120
O1000       O  0.43805116  0.55794410  0.32009807    -0.75130
O1001       O  0.50717310  0.55732649  0.34605924    -0.74980
O1002       O  0.45943132  0.57851672  0.35974643    -0.80640
O1003       O  0.50967135  0.52500470  0.37226939    -0.78850
O1004       O  0.46472707  0.52822545  0.35281704    -1.14980
O1005       O  0.47835894  0.49027241  0.38479007    -0.74180
C1006       C  0.47976867  0.47428893  0.36725550     0.96540
C1007       C  0.41788371  0.54598991  0.32519951     0.92940
Al1008     Al  0.47176493  0.55527752  0.33431980     1.55560
O1009       O  0.42917490  0.49640192  0.37318500    -0.78800
C1010       C  0.52012685  0.54200907  0.35945385     0.97110
C1011       C  0.47272696  0.51731347  0.29576741     0.91990
O1012       O  0.45584398  0.50542449  0.30744895    -0.84120
O1013       O  0.22312823  0.27285224  0.59761642    -0.83580
C1014       C  0.32435584  0.27508058  0.63230786     0.95780
O1015       O  0.30654556  0.26202425  0.64088411    -0.72690
O1016       O  0.27286817  0.29753563  0.64783158    -0.76290
Al1017     Al  0.27123281  0.26509760  0.63393683     1.48980
C1018       C  0.25750746  0.31506756  0.64294139     0.91030
O1019       O  0.26999116  0.32399923  0.58577094    -0.82510
O1020       O  0.28053087  0.25898607  0.55602157    -0.76060
Al1021     Al  0.24835513  0.29746569  0.59217359     1.90120
O1022       O  0.30301374  0.30438080  0.57025495    -0.75130
O1023       O  0.30198044  0.23508474  0.59565119    -0.74980
O1024       O  0.32342466  0.28276145  0.60982445    -0.80640
O1025       O  0.26943546  0.23237756  0.62157944    -0.78850
O1026       O  0.27319881  0.27762179  0.60305037    -1.14980
O1027       O  0.23561518  0.26416130  0.63592837    -0.74180
C1028       C  0.21912894  0.26334233  0.61890025     0.96540
C1029       C  0.29112032  0.32456942  0.57523277     0.92940
Al1030     Al  0.30014156  0.27070832  0.58429800     1.55560
O1031       O  0.24291748  0.31373260  0.62406255    -0.78800
C1032       C  0.28643354  0.22199217  0.60867554     0.97110
C1033       C  0.26098100  0.26905985  0.54665341     0.91990
O1034       O  0.24909251  0.28590328  0.55847633    -0.84120
O1035       O  0.34441256  0.47712458  0.47701225    -0.83580
C1036       C  0.38086883  0.47018364  0.57759335     0.95780
O1037       O  0.38994150  0.48280155  0.55974957    -0.72690
O1038       O  0.39506749  0.44866365  0.52432422    -0.76290
Al1039     Al  0.38209524  0.48171534  0.52465981     1.48980
C1040       C  0.38936268  0.43222690  0.50805878     0.91030
O1041       O  0.33225580  0.42446835  0.52223427    -0.82510
O1042       O  0.30414962  0.48974678  0.53551959    -0.76060
Al1043     Al  0.33884068  0.45165491  0.50138707     1.90120
O1044       O  0.31800080  0.44331048  0.55627325    -0.75130
O1045       O  0.34459107  0.51192913  0.55693058    -0.74980
O1046       O  0.35802819  0.46360490  0.57692044    -0.80640
O1047       O  0.37095730  0.51492547  0.52476701    -0.78850
O1048       O  0.35079155  0.47020815  0.52676854    -1.14980
O1049       O  0.38318044  0.48438869  0.48915220    -0.74180
C1050       C  0.36595318  0.48607519  0.47293017     0.96540
C1051       C  0.32232839  0.42342073  0.54365203     0.92940
Al1052     Al  0.33255413  0.47675451  0.55423075     1.55560
O1053       O  0.37005636  0.43484438  0.49427467    -0.78800
C1054       C  0.35798410  0.52510331  0.54183518     0.97110
C1055       C  0.29428461  0.48055888  0.51582168     0.91990
O1056       O  0.30553236  0.46386396  0.50327072    -0.84120
O1057       O  0.59713385  0.23114776  0.26612062    -0.83580
C1058       C  0.63198957  0.33229204  0.27200881     0.95780
O1059       O  0.64119673  0.31426541  0.25980730    -0.72690
O1060       O  0.64674664  0.27972038  0.29503331    -0.76290
Al1061     Al  0.63400812  0.27916370  0.26189980     1.48980
C1062       C  0.64144207  0.26319438  0.31138366     0.91030
O1063       O  0.58393910  0.27613916  0.31883580    -0.82510
O1064       O  0.55547884  0.28893255  0.25401802    -0.76060
Al1065     Al  0.59102338  0.25533201  0.29175154     1.90120
O1066       O  0.56971045  0.31028595  0.29997303    -0.75130
O1067       O  0.59592704  0.31005566  0.23095776    -0.74980
O1068       O  0.60927667  0.33133789  0.27896508    -0.80640
O1069       O  0.62304456  0.27835433  0.22875809    -0.78850
O1070       O  0.60258120  0.28087560  0.27320136    -1.14980
O1071       O  0.63595118  0.24369023  0.25997158    -0.74180
C1072       C  0.61878509  0.22756342  0.25716823     0.96540
C1073       C  0.57389081  0.29754851  0.31983516     0.92940
Al1074     Al  0.58399307  0.30800961  0.26638141     1.55560
O1075       O  0.62243274  0.24893787  0.30867607    -0.78800
C1076       C  0.60977965  0.29494574  0.21816741     0.97110
C1077       C  0.54581215  0.26918921  0.26340360     0.91990
O1078       O  0.55758021  0.25654117  0.27964765    -0.84120
O1079       O  0.47310849  0.34928130  0.47129792    -0.83580
C1080       C  0.57436740  0.38399669  0.46660450     0.95780
O1081       O  0.55641540  0.39330947  0.47889881    -0.72690
O1082       O  0.52204528  0.39903784  0.44382490    -0.76290
Al1083     Al  0.52121332  0.38614925  0.47680264     1.48980
C1084       C  0.50612297  0.39357371  0.42698445     0.91030
O1085       O  0.51908837  0.33634143  0.41957452    -0.82510
O1086       O  0.53098455  0.30830525  0.48492954    -0.76060
Al1087     Al  0.49787499  0.34326313  0.44631576     1.90120
O1088       O  0.55270790  0.32169844  0.43884568    -0.75130
O1089       O  0.55241108  0.34843761  0.50750383    -0.74980
O1090       O  0.57336432  0.36132946  0.45958920    -0.80640
O1091       O  0.52023781  0.37491260  0.50997993    -0.78850
O1092       O  0.52308248  0.35484471  0.46529776    -1.14980
O1093       O  0.48564710  0.38796844  0.47845583    -0.74180
C1094       C  0.46920771  0.37092870  0.48009441     0.96540
C1095       C  0.54048653  0.32633471  0.41878881     0.92940
Al1096     Al  0.55019908  0.33629105  0.47229118     1.55560
O1097       O  0.49174158  0.37462972  0.42934921    -0.78800
C1098       C  0.53722147  0.36201682  0.52043240     0.97110
C1099       C  0.51138388  0.29857298  0.47545292     0.91990
O1100       O  0.49908352  0.30991132  0.45862632    -0.84120
O1101       O  0.84650355  0.01862500  0.51495079    -0.83580
C1102       C  0.88094137  0.02369087  0.41350187     0.95780
O1103       O  0.89022462  0.01142058  0.43145604    -0.72690
O1104       O  0.89581367  0.04650556  0.46590401    -0.76290
Al1105     Al  0.88307192  0.01339807  0.46662382     1.48980
C1106       C  0.89040517  0.06318616  0.48203345     0.91030
O1107       O  0.83265903  0.07025460  0.46918077    -0.82510
O1108       O  0.80482814  0.00478227  0.45756743    -0.76060
Al1109     Al  0.84008356  0.04357293  0.49027661     1.90120
O1110       O  0.81814420  0.05087976  0.43556943    -0.75130
O1111       O  0.84521942  0.98240074  0.43573089    -0.74980
O1112       O  0.85810514  0.03038774  0.41446612    -0.80640
O1113       O  0.87210614  0.98013966  0.46752365    -0.78850
O1114       O  0.85164580  0.02468908  0.46495538    -1.14980
O1115       O  0.88508286  0.01158988  0.50211955    -0.74180
C1116       C  0.86818958  0.00989470  0.51867440     0.96540
C1117       C  0.82239919  0.07094040  0.44792284     0.92940
Al1118     Al  0.83295503  0.01755188  0.43797924     1.55560
O1119       O  0.87130460  0.06082919  0.49618174    -0.78800
C1120       C  0.85906259  0.96959346  0.45074421     0.97110
C1121       C  0.79536103  0.01409510  0.47745688     0.91990
O1122       O  0.80686203  0.03097961  0.48950569    -0.84120
O1123       O  0.72500659  0.22416547  0.39328073    -0.83580
C1124       C  0.82609129  0.21589815  0.35810995     0.95780
O1125       O  0.80837018  0.22841283  0.34868316    -0.72690
O1126       O  0.77264274  0.19453790  0.34348611    -0.76290
Al1127     Al  0.77318852  0.22771777  0.35615241     1.48980
C1128       C  0.75599242  0.17842135  0.34906186     0.91030
O1129       O  0.76940563  0.17081874  0.40631308    -0.82510
O1130       O  0.78320616  0.23591452  0.43429650    -0.76060
Al1131     Al  0.74893776  0.19829151  0.39932296     1.90120
O1132       O  0.80360760  0.18941539  0.42061403    -0.75130
O1133       O  0.80506774  0.25791166  0.39412624    -0.74980
O1134       O  0.82505964  0.20949189  0.38096418    -0.80640
O1135       O  0.77354744  0.26101926  0.36699695    -0.78850
O1136       O  0.77474702  0.21643882  0.38756548    -1.14980
O1137       O  0.73769991  0.23081190  0.35458662    -0.74180
C1138       C  0.72140837  0.23318005  0.37167714     0.96540
C1139       C  0.79078093  0.16965047  0.41636698     0.92940
Al1140     Al  0.80205525  0.22279895  0.40608677     1.55560
O1141       O  0.74195377  0.18141379  0.36813357    -0.78800
C1142       C  0.79027063  0.27112703  0.38046249     0.97110
C1143       C  0.76334635  0.22695642  0.44406724     0.91990
O1144       O  0.75055822  0.21057345  0.43263986    -0.84120
O1145       O  0.19498097  0.73064790  0.58814182    -0.83580
C1146       C  0.23682122  0.81610309  0.63549895     0.95780
O1147       O  0.23529009  0.79422350  0.64465885    -0.72690
O1148       O  0.18838730  0.78214298  0.64231649    -0.76290
Al1149     Al  0.21823403  0.76512924  0.63306940     1.48980
C1150       C  0.16687946  0.77864135  0.63293497     0.91030
O1151       O  0.18022613  0.80182874  0.57853326    -0.82510
O1152       O  0.24587286  0.76962656  0.56181287    -0.76060
Al1153     Al  0.18851316  0.76662482  0.58367018     1.90120
O1154       O  0.21832567  0.81294371  0.56677422    -0.75130
O1155       O  0.26718148  0.77815852  0.60559433    -0.74980
O1156       O  0.23648131  0.81964355  0.61202144    -0.80640
O1157       O  0.24875896  0.74768123  0.62672120    -0.78850
O1158       O  0.21565440  0.77495449  0.60138766    -1.14980
O1159       O  0.20139970  0.73357021  0.62894095    -0.74180
C1160       C  0.19805857  0.72025799  0.60952899     0.96540
C1161       C  0.19531164  0.81821776  0.56978838     0.92940
Al1162     Al  0.24003228  0.79351154  0.58761431     1.55560
O1163       O  0.16462058  0.76770551  0.61177648    -0.78800
C1164       C  0.26850349  0.75809818  0.61837700     0.97110
C1165       C  0.22944883  0.76368449  0.54567540     0.91990
O1166       O  0.20616176  0.76430778  0.55143722    -0.84120
O1167       O  0.14965491  0.00883295  0.54706781    -0.83580
C1168       C  0.10492214  0.92193622  0.50568723     0.95780
O1169       O  0.09530638  0.94366863  0.50651185    -0.72690
O1170       O  0.09692384  0.95593504  0.55342178    -0.76290
Al1171     Al  0.10594933  0.97307745  0.52363651     1.48980
C1172       C  0.10610413  0.95984672  0.57494107     0.91030
O1173       O  0.16153176  0.93809397  0.56206330    -0.82510
O1174       O  0.17708401  0.97038051  0.49627765    -0.76060
Al1175     Al  0.15523392  0.97308340  0.55360248     1.90120
O1176       O  0.17376109  0.92722264  0.52410064    -0.75130
O1177       O  0.13381473  0.96024793  0.47509796    -0.74980
O1178       O  0.12849641  0.91889748  0.50630544    -0.80640
O1179       O  0.11227514  0.99064099  0.49319626    -0.78850
O1180       O  0.13785356  0.96408707  0.52651196    -1.14980
O1181       O  0.10898443  0.00471687  0.54046304    -0.74180
C1182       C  0.12798372  0.01857619  0.54392302     0.96540
C1183       C  0.17086071  0.92194551  0.54709014     0.92940
Al1184     Al  0.15218325  0.94571045  0.50235686     1.55560
O1185       O  0.12708387  0.97113046  0.57728869    -0.78800
C1186       C  0.12113167  0.98036157  0.47361110     0.97110
C1187       C  0.19279795  0.97760972  0.51258386     0.91990
O1188       O  0.18729194  0.97661961  0.53590462    -0.84120
O1189       O  0.71732125  0.09841817  0.26382841    -0.83580
C1190       C  0.71925695  0.13257614  0.16276005     0.95780
O1191       O  0.73138708  0.14185862  0.18088428    -0.72690
O1192       O  0.69582664  0.15048620  0.21406988    -0.76290
Al1193     Al  0.72809248  0.13537740  0.21616049     1.48980
C1194       C  0.67823208  0.14626153  0.22953533     0.91030
O1195       O  0.66789361  0.09107622  0.21406444    -0.82510
O1196       O  0.73362064  0.05697130  0.20999669    -0.76060
Al1197     Al  0.69338322  0.09491918  0.23759040     1.90120
O1198       O  0.68935858  0.07091822  0.18477720    -0.75130
O1199       O  0.75844757  0.09551739  0.18698050    -0.74980
O1200       O  0.71219013  0.10979673  0.16366817    -0.80640
O1201       O  0.76072160  0.12260303  0.21845169    -0.78850
O1202       O  0.71506688  0.10476280  0.21404108    -1.14980
O1203       O  0.72860498  0.13650920  0.25184395    -0.74180
C1204       C  0.72798586  0.11920193  0.26818408     0.96540
C1205       C  0.66858013  0.07810604  0.19429767     0.92940
Al1206     Al  0.72297306  0.08480982  0.18828578     1.55560
O1207       O  0.67905685  0.12727819  0.24387697    -0.78800
C1208       C  0.77130447  0.10884428  0.20228906     0.97110
C1209       C  0.71978777  0.04765579  0.22720210     0.91990
O1210       O  0.70199582  0.06046619  0.23636100    -0.84120
O1211       O  0.51906695  0.97388936  0.14367299    -0.83580
C1212       C  0.52298507  0.07468147  0.10601866     0.95780
O1213       O  0.51098766  0.05616738  0.09749858    -0.72690
O1214       O  0.54692999  0.02211642  0.09345769    -0.76290
Al1215     Al  0.51379452  0.02118945  0.10592997     1.48980
C1216       C  0.56390850  0.00646399  0.09942423     0.91030
O1217       O  0.57032212  0.02003842  0.15708468    -0.82510
O1218       O  0.50603350  0.03344519  0.18426224    -0.76060
Al1219     Al  0.54382525  0.99882508  0.14970974     1.90120
O1220       O  0.55134680  0.05504931  0.16861541    -0.75130
O1221       O  0.48253342  0.05261986  0.14317443    -0.74980
O1222       O  0.53006180  0.07437515  0.12869520    -0.80640
O1223       O  0.48053542  0.02010836  0.11698579    -0.78850
O1224       O  0.52501670  0.02389197  0.13729988    -1.14980
O1225       O  0.51269136  0.98556625  0.10469384    -0.74180
C1226       C  0.51079236  0.96947576  0.12199315     0.96540
C1227       C  0.57121430  0.04208123  0.16556495     0.92940
Al1228     Al  0.51791175  0.05162885  0.15487298     1.55560
O1229       O  0.56155081  0.99245135  0.11867057    -0.78800
C1230       C  0.46983484  0.03695680  0.12991482     0.97110
C1231       C  0.51490689  0.01360220  0.19424301     0.91990
O1232       O  0.53084811  0.00035271  0.18273595    -0.84120
O1233       O  0.22636892  0.72463045  0.89227397    -0.83580
C1234       C  0.32815752  0.72054142  0.86023901     0.95780
O1235       O  0.31116556  0.73454483  0.85153133    -0.72690
O1236       O  0.27711680  0.69937791  0.84338164    -0.76290
Al1237     Al  0.27562484  0.73185025  0.85745502     1.48980
C1238       C  0.26111735  0.68226267  0.84776000     0.91030
O1239       O  0.27211837  0.67304568  0.90586146    -0.82510
O1240       O  0.28308923  0.73763793  0.93585403    -0.76060
Al1241     Al  0.25116672  0.69985442  0.89865483     1.90120
O1242       O  0.30531746  0.69183064  0.92184077    -0.75130
O1243       O  0.30569289  0.76144499  0.89661167    -0.74980
O1244       O  0.32668074  0.71313579  0.88277552    -0.80640
O1245       O  0.27385019  0.76449882  0.86987448    -0.78850
O1246       O  0.27656862  0.71926252  0.88842223    -1.14980
O1247       O  0.24012303  0.73319612  0.85436921    -0.74180
C1248       C  0.22289663  0.73354695  0.87065316     0.96540
C1249       C  0.29306366  0.67190543  0.91666370     0.92940
Al1250     Al  0.30315866  0.72568750  0.90785278     1.55560
O1251       O  0.24656674  0.68354399  0.86669301    -0.78800
C1252       C  0.29055809  0.77471952  0.88324401     0.97110
C1253       C  0.26298125  0.72806080  0.94459941     0.91990
O1254       O  0.25101819  0.71163918  0.93228453    -0.84120
O1255       O  0.34417292  0.51734865  0.01278415    -0.83580
C1256       C  0.37945814  0.52396501  0.91211666     0.95780
O1257       O  0.38865218  0.51116496  0.92975538    -0.72690
O1258       O  0.39508479  0.54517248  0.96513744    -0.76290
Al1259     Al  0.38145220  0.51234885  0.96492218     1.48980
C1260       C  0.39011590  0.56142887  0.98182735     0.91030
O1261       O  0.33330991  0.57072584  0.96808588    -0.82510
O1262       O  0.30333536  0.50563276  0.95579451    -0.76060
Al1263     Al  0.33917643  0.54328269  0.98883884     1.90120
O1264       O  0.31750219  0.55206137  0.93460269    -0.75130
O1265       O  0.34272396  0.48257521  0.93357844    -0.74980
O1266       O  0.35669594  0.53079196  0.91312836    -0.80640
O1267       O  0.36982606  0.47934886  0.96503704    -0.78850
O1268       O  0.35034323  0.52445029  0.96332375    -1.14980
O1269       O  0.38279561  0.50955990  0.00033268    -0.74180
C1270       C  0.36544115  0.50756349  0.01640944     0.96540
C1271       C  0.32279741  0.57193651  0.94695531     0.92940
Al1272     Al  0.33145224  0.51815009  0.93635198     1.55560
O1273       O  0.37092898  0.55907194  0.99583334    -0.78800
C1274       C  0.35610278  0.46923340  0.94857320     0.97110
C1275       C  0.29391219  0.51524099  0.97550674     0.91990
O1276       O  0.30542934  0.53224618  0.98735617    -0.84120
O1277       O  0.76551928  0.22432720  0.59646973    -0.83580
C1278       C  0.66401641  0.21667578  0.63047181     0.95780
O1279       O  0.68193149  0.22836857  0.64055657    -0.72690
O1280       O  0.71746270  0.19444410  0.64583838    -0.76290
Al1281     Al  0.71716528  0.22778428  0.63348887     1.48980
C1282       C  0.73417344  0.17834733  0.64043540     0.91030
O1283       O  0.72092666  0.17127650  0.58346776    -0.82510
O1284       O  0.70866279  0.23687920  0.55519579    -0.76060
Al1285     Al  0.74166966  0.19848788  0.59041020     1.90120
O1286       O  0.68742762  0.19052883  0.56815704    -0.75130
O1287       O  0.68638199  0.25891903  0.59498983    -0.74980
O1288       O  0.66527740  0.21080728  0.60747857    -0.80640
O1289       O  0.71699984  0.26125059  0.62317100    -0.78850
O1290       O  0.71591241  0.21689018  0.60193229    -1.14980
O1291       O  0.75268998  0.23085896  0.63518359    -0.74180
C1292       C  0.76886809  0.23360114  0.61800124     0.96540
C1293       C  0.69981407  0.17055155  0.57281312     0.92940
Al1294     Al  0.68907723  0.22384049  0.58293319     1.55560
O1295       O  0.74857636  0.18158592  0.62168821    -0.78800
C1296       C  0.70101663  0.27176697  0.60913962     0.97110
C1297       C  0.72827094  0.22732427  0.54550050     0.91990
O1298       O  0.74042787  0.21049093  0.55695873    -0.84120
O1299       O  0.64348477  0.01656068  0.47741754    -0.83580
C1300       C  0.60918148  0.02665178  0.57853334     0.95780
O1301       O  0.59965128  0.01398464  0.56101532    -0.72690
O1302       O  0.59455240  0.04751765  0.52503324    -0.76290
Al1303     Al  0.60684878  0.01422606  0.52586884     1.48980
C1304       C  0.60019553  0.06340635  0.50820216     0.91030
O1305       O  0.65806961  0.07022453  0.52060130    -0.82510
O1306       O  0.68517286  0.00519062  0.53541268    -0.76060
Al1307     Al  0.65020700  0.04264435  0.50081517     1.90120
O1308       O  0.67205123  0.05220429  0.55519998    -0.75130
O1309       O  0.64443844  0.98410635  0.55810995    -0.74980
O1310       O  0.63208701  0.03300525  0.57729833    -0.80640
O1311       O  0.61733458  0.98083811  0.52657750    -0.78850
O1312       O  0.63842987  0.02513452  0.52703039    -1.14980
O1313       O  0.60482220  0.01073127  0.49052521    -0.74180
C1314       C  0.62171235  0.00787556  0.47412228     0.96540
C1315       C  0.66826876  0.07172544  0.54186008     0.92940
Al1316     Al  0.65705199  0.01898521  0.55431445     1.55560
O1317       O  0.61915950  0.06004202  0.49406127    -0.78800
C1318       C  0.63024388  0.97088149  0.54381665     0.97110
C1319       C  0.69475075  0.01358323  0.51517260     0.91990
O1320       O  0.68325641  0.02976123  0.50219978    -0.84120
O1321       O  0.26311245  0.72368815  0.09683494    -0.83580
C1322       C  0.16183908  0.71880074  0.13163403     0.95780
O1323       O  0.17957921  0.73187951  0.14019318    -0.72690
O1324       O  0.21377889  0.69635373  0.14604282    -0.76290
Al1325     Al  0.21482600  0.72921225  0.13298182     1.48980
C1326       C  0.22971649  0.67941569  0.14076627     0.91030
O1327       O  0.21813781  0.67177953  0.08250023    -0.82510
O1328       O  0.20454044  0.73583808  0.05451380    -0.76060
Al1329     Al  0.23861680  0.69869688  0.09031436     1.90120
O1330       O  0.18317956  0.68974636  0.06958941    -0.75130
O1331       O  0.18379385  0.75951796  0.09493191    -0.74980
O1332       O  0.16279653  0.71130302  0.10911394    -0.80640
O1333       O  0.21604278  0.76220147  0.12134242    -0.78850
O1334       O  0.21307193  0.71734783  0.10174983    -1.14980
O1335       O  0.25043441  0.73062515  0.13537082    -0.74180
C1336       C  0.26707170  0.73204339  0.11855972     0.96540
C1337       C  0.19654305  0.67014115  0.07314023     0.92940
Al1338     Al  0.18572715  0.72375346  0.08337307     1.55560
O1339       O  0.24403750  0.68142338  0.12170332    -0.78800
C1340       C  0.19908476  0.77259453  0.10837204     0.97110
C1341       C  0.22490314  0.72734054  0.04529120     0.91990
O1342       O  0.23792298  0.71149390  0.05721345    -0.84120
O1343       O  0.14415618  0.51746636  0.97709194    -0.83580
C1344       C  0.10874936  0.52214411  0.07790972     0.95780
O1345       O  0.09935730  0.50997713  0.05991911    -0.72690
O1346       O  0.09353836  0.54478939  0.02537732    -0.76290
Al1347     Al  0.10660656  0.51175921  0.02476960     1.48980
C1348       C  0.09893119  0.56148918  0.00928181     0.91030
O1349       O  0.15514054  0.56955750  0.02336750    -0.82510
O1350       O  0.18442675  0.50345872  0.03387144    -0.76060
Al1351     Al  0.14929947  0.54271106  0.00179410     1.90120
O1352       O  0.17139616  0.54971728  0.05598992    -0.75130
O1353       O  0.14435970  0.48083171  0.05593188    -0.74980
O1354       O  0.13156372  0.52882559  0.07703471    -0.80640
O1355       O  0.11771475  0.47852368  0.02400594    -0.78850
O1356       O  0.13784484  0.52333729  0.02674570    -1.14980
O1357       O  0.10536974  0.50980115  0.98918436    -0.74180
C1358       C  0.12277334  0.50804468  0.97310068     0.96540
C1359       C  0.16599999  0.56999276  0.04434002     0.92940
Al1360     Al  0.15657847  0.51614491  0.05361589     1.55560
O1361       O  0.11784697  0.55897493  0.99497384    -0.78800
C1362       C  0.13062271  0.46795657  0.04085770     0.97110
C1363       C  0.19417148  0.51377238  0.01465789     0.91990
O1364       O  0.18294070  0.53132104  0.00330360    -0.84120
O1365       O  0.22308312  0.60106581  0.76386718    -0.83580
C1366       C  0.21705775  0.63045012  0.66115869     0.95780
O1367       O  0.22997146  0.64007672  0.67840506    -0.72690
O1368       O  0.19470025  0.64786249  0.71251389    -0.76290
Al1369     Al  0.22771184  0.63481152  0.71379949     1.48980
C1370       C  0.17802793  0.64328353  0.72893975     0.91030
O1371       O  0.17017890  0.58492208  0.72022062    -0.82510
O1372       O  0.23436090  0.55567813  0.70826507    -0.76060
Al1373     Al  0.19747355  0.59346521  0.74020197     1.90120
O1374       O  0.18846783  0.56977977  0.68627625    -0.75130
O1375       O  0.25779233  0.59451278  0.68499949    -0.74980
O1376       O  0.20979268  0.60788050  0.66326695    -0.80640
O1377       O  0.26074376  0.62330366  0.71513461    -0.78850
O1378       O  0.21593462  0.60345504  0.71392247    -1.14980
O1379       O  0.22966014  0.63896272  0.74905091    -0.74180
C1380       C  0.23212355  0.62282735  0.76623803     0.96540
C1381       C  0.16878500  0.57441470  0.69910026     0.92940
Al1382     Al  0.22224009  0.58343945  0.68775988     1.55560
O1383       O  0.18060412  0.62518800  0.74436493    -0.78800
C1384       C  0.27095184  0.60876056  0.69935686     0.97110
C1385       C  0.22568758  0.54747330  0.72897958     0.91990
O1386       O  0.20975296  0.56013094  0.74115362    -0.84120
O1387       O  0.01921980  0.47698560  0.64420844    -0.83580
C1388       C  0.01897910  0.57848687  0.61097442     0.95780
O1389       O  0.00589958  0.56076885  0.60220569    -0.72690
O1390       O  0.04135609  0.52750076  0.59320596    -0.76290
Al1391     Al  0.00924765  0.52533729  0.60827863     1.48980
C1392       C  0.05896985  0.51199884  0.59726178     0.91030
O1393       O  0.06977611  0.52535264  0.65303383    -0.82510
O1394       O  0.00460195  0.53152146  0.68667240    -0.76060
Al1395     Al  0.04365418  0.50271838  0.64836205     1.90120
O1396       O  0.04940214  0.55585170  0.67241275    -0.75130
O1397       O  0.97959778  0.55477857  0.64807557    -0.74980
O1398       O  0.02663597  0.57732184  0.63352653    -0.80640
O1399       O  0.97680043  0.52300363  0.62133004    -0.78850
O1400       O  0.02257339  0.52696013  0.63880302    -1.14980
O1401       O  0.00852839  0.48966681  0.60632354    -0.74180
C1402       C  0.00869854  0.47304452  0.62333029     0.96540
C1403       C  0.06988467  0.54537383  0.66561800     0.92940
Al1404     Al  0.01543449  0.55294193  0.65872196     1.55560
O1405       O  0.05808837  0.49715767  0.61589291    -0.78800
C1406       C  0.96643809  0.53956761  0.63476936     0.97110
C1407       C  0.01702756  0.51295533  0.69544184     0.91990
O1408       O  0.03457920  0.50331003  0.68266872    -0.84120
O1409       O  0.98163972  0.04454572  0.34020879    -0.83580
C1410       C  0.06826174  0.00422367  0.38656140     0.95780
O1411       O  0.04638268  0.00470065  0.39581874    -0.72690
O1412       O  0.03265058  0.05114823  0.39448439    -0.76290
Al1413     Al  0.01671942  0.02089269  0.38465286     1.48980
C1414       C  0.02857293  0.07269750  0.38540690     0.91030
O1415       O  0.05271843  0.06062066  0.33072068    -0.82510
O1416       O  0.02157015  0.99433632  0.31312854    -0.76060
Al1417     Al  0.01757065  0.05155455  0.33574345     1.90120
O1418       O  0.06418818  0.02298802  0.31793507    -0.75130
O1419       O  0.03144920  0.97272613  0.35671788    -0.74980
O1420       O  0.07173673  0.00483985  0.36307386    -0.80640
O1421       O  0.00029384  0.98988036  0.37786874    -0.78850
O1422       O  0.02643063  0.02429401  0.35302579    -1.14980
O1423       O  0.98469578  0.03670201  0.38078736    -0.74180
C1424       C  0.97134565  0.04090568  0.36158470     0.96540
C1425       C  0.06923350  0.04598420  0.32142576     0.92940
Al1426     Al  0.04560064  0.00058963  0.33882822     1.55560
O1427       O  0.01803251  0.07501277  0.36409051    -0.78800
C1428       C  0.01146634  0.97057765  0.36946330     0.97110
C1429       C  0.01549119  0.01098740  0.29723325     0.91990
O1430       O  0.01569260  0.03422134  0.30333704    -0.84120
O1431       O  0.25943578  0.09385280  0.29556050    -0.83580
C1432       C  0.17118444  0.13808228  0.25639806     0.95780
O1433       O  0.19271358  0.14799012  0.25768873    -0.72690
O1434       O  0.20500920  0.14521627  0.30453545    -0.76290
Al1435     Al  0.22221188  0.13737373  0.27449695     1.48980
C1436       C  0.21002785  0.13594502  0.32578971     0.91030
O1437       O  0.18902842  0.08042484  0.31218635    -0.82510
O1438       O  0.21997518  0.06628690  0.24550335    -0.76060
Al1439     Al  0.22378523  0.08737178  0.30305087     1.90120
O1440       O  0.17719529  0.06929616  0.27411674    -0.75130
O1441       O  0.20992595  0.11006576  0.22540133    -0.74980
O1442       O  0.16848654  0.11448629  0.25674640    -0.80640
O1443       O  0.23971910  0.13208094  0.24398951    -0.78850
O1444       O  0.21389735  0.10519202  0.27659074    -1.14980
O1445       O  0.25395475  0.13467773  0.29117398    -0.74180
C1446       C  0.26851020  0.11598234  0.29312164     0.96540
C1447       C  0.17250129  0.07153402  0.29732998     0.92940
Al1448     Al  0.19543627  0.09113235  0.25237011     1.55560
O1449       O  0.22198441  0.11520319  0.32743249    -0.78800
C1450       C  0.22980163  0.12318019  0.22425992     0.97110
C1451       C  0.22701071  0.05000941  0.26131847     0.91990
O1452       O  0.22707442  0.05537116  0.28471427    -0.84120
O1453       O  0.59686193  0.76363700  0.22270991    -0.83580
C1454       C  0.63067980  0.66207165  0.21823057     0.95780
O1455       O  0.63987860  0.67999277  0.23056648    -0.72690
O1456       O  0.64541462  0.71380102  0.19476104    -0.76290
Al1457     Al  0.63294792  0.71514033  0.22788628     1.48980
C1458       C  0.64013894  0.72991592  0.17801386     0.91030
O1459       O  0.58157868  0.71780840  0.17129259    -0.82510
O1460       O  0.55443194  0.70642875  0.23680038    -0.76060
Al1461     Al  0.58989336  0.73891534  0.19788376     1.90120
O1462       O  0.56787155  0.68394242  0.19114963    -0.75130
O1463       O  0.59510983  0.68498034  0.25957111    -0.74980
O1464       O  0.60783059  0.66299910  0.21162402    -0.80640
O1465       O  0.62219639  0.71670253  0.26116198    -0.78850
O1466       O  0.60141135  0.71356635  0.21680802    -1.14980
O1467       O  0.63542971  0.75057460  0.22905392    -0.74180
C1468       C  0.61860549  0.76710714  0.23136781     0.96540
C1469       C  0.57117026  0.69658314  0.17112860     0.92940
Al1470     Al  0.58271236  0.68669650  0.22433122     1.55560
O1471       O  0.62110231  0.74423112  0.18025218    -0.78800
C1472       C  0.60911507  0.70015928  0.27207116     0.97110
C1473       C  0.54509431  0.72641813  0.22747269     0.91990
O1474       O  0.55683820  0.73860103  0.21086272    -0.84120
O1475       O  0.47407071  0.64386324  0.01945695    -0.83580
C1476       C  0.57625123  0.61105988  0.02399072     0.95780
O1477       O  0.55816587  0.60165600  0.01207123    -0.72690
O1478       O  0.52420132  0.59623907  0.04798770    -0.76290
Al1479     Al  0.52300068  0.60849349  0.01475396     1.48980
C1480       C  0.50809183  0.60170470  0.06471617     0.91030
O1481       O  0.51911260  0.66158590  0.07051127    -0.82510
O1482       O  0.53197224  0.68709171  0.00583716    -0.76060
Al1483     Al  0.49863791  0.65186011  0.04403650     1.90120
O1484       O  0.55423164  0.67319942  0.05168316    -0.75130
O1485       O  0.55300702  0.64662451  0.98311903    -0.74980
O1486       O  0.57508325  0.63377679  0.03089601    -0.80640
O1487       O  0.52154359  0.61918202  0.98141152    -0.78850
O1488       O  0.52436762  0.64015095  0.02566903    -1.14980
O1489       O  0.48759309  0.60545462  0.01350972    -0.74180
C1490       C  0.47076266  0.62194840  0.01124603     0.96540
C1491       C  0.54077194  0.67100057  0.07130640     0.92940
Al1492     Al  0.55138637  0.65878739  0.01835757     1.55560
O1493       O  0.49398001  0.62093662  0.06249012    -0.78800
C1494       C  0.53787780  0.63262293  0.97057125     0.97110
C1495       C  0.51131246  0.69610861  0.01380402     0.91990
O1496       O  0.49847883  0.68439978  0.02993013    -0.84120
O1497       O  0.09494904  0.26691868  0.72373655    -0.83580
C1498       C  0.12962322  0.16530615  0.71677036     0.95780
O1499       O  0.13900236  0.18317085  0.72912468    -0.72690
O1500       O  0.14392122  0.21836768  0.69457683    -0.76290
Al1501     Al  0.13158513  0.21844687  0.72779755     1.48980
C1502       C  0.13818511  0.23469803  0.67818901     0.91030
O1503       O  0.08009016  0.22204528  0.67181981    -0.82510
O1504       O  0.05332221  0.20819008  0.73662995    -0.76060
Al1505     Al  0.08806298  0.24253079  0.69869765     1.90120
O1506       O  0.06699467  0.18733946  0.69024173    -0.75130
O1507       O  0.09404868  0.18676088  0.75850960    -0.74980
O1508       O  0.10680748  0.16636095  0.71022956    -0.80640
O1509       O  0.12089672  0.21865912  0.76115772    -0.78850
O1510       O  0.10003265  0.21680320  0.71683530    -1.14980
O1511       O  0.13361994  0.25408018  0.73006670    -0.74180
C1512       C  0.11692009  0.27086917  0.73153633     0.96540
C1513       C  0.07066806  0.20042078  0.67055393     0.92940
Al1514     Al  0.08166590  0.18939380  0.72351026     1.55560
O1515       O  0.11899451  0.24869433  0.68092569    -0.78800
C1516       C  0.10790639  0.20163373  0.77146996     0.97110
C1517       C  0.04369891  0.22837328  0.72818962     0.91990
O1518       O  0.05513798  0.24139292  0.71199656    -0.84120
O1519       O  0.97519352  0.14382534  0.52008469    -0.83580
C1520       C  0.07614963  0.10866517  0.52436602     0.95780
O1521       O  0.05833377  0.09959133  0.51170790    -0.72690
O1522       O  0.02417690  0.09367122  0.54692180    -0.76290
Al1523     Al  0.02309595  0.10676036  0.51404572     1.48980
C1524       C  0.00830997  0.09890843  0.56388090     0.91030
O1525       O  0.02158028  0.15599363  0.57149986    -0.82510
O1526       O  0.03247927  0.18474003  0.50584485    -0.76060
Al1527     Al  0.00006457  0.14947898  0.54496686     1.90120
O1528       O  0.05450729  0.17157619  0.55164149    -0.75130
O1529       O  0.05411189  0.14442796  0.48317879    -0.74980
O1530       O  0.07527447  0.13145432  0.53119024    -0.80640
O1531       O  0.02184540  0.11810278  0.48097172    -0.78850
O1532       O  0.02503464  0.13803355  0.52563181    -1.14980
O1533       O  0.98749731  0.10509474  0.51261206    -0.74180
C1534       C  0.97125369  0.12234361  0.51091607     0.96540
C1535       C  0.04259691  0.16677186  0.57183604     0.92940
Al1536     Al  0.05200065  0.15666744  0.51839315     1.55560
O1537       O  0.99391722  0.11789508  0.56175641    -0.78800
C1538       C  0.03874367  0.13095820  0.47036995     0.97110
C1539       C  0.01315542  0.19458432  0.51591156     0.91990
O1540       O  0.00124238  0.18313195  0.53298570    -0.84120
O1541       O  0.26074033  0.90498179  0.19181552    -0.83580
C1542       C  0.17867301  0.85393186  0.23615454     0.95780
O1543       O  0.20110509  0.84627754  0.23492053    -0.72690
O1544       O  0.21109477  0.84868607  0.18742898    -0.76290
Al1545     Al  0.22868784  0.85918590  0.21641496     1.48980
C1546       C  0.21342857  0.85789672  0.16567427     0.91030
O1547       O  0.18901466  0.91223112  0.17834520    -0.82510
O1548       O  0.22028249  0.93081644  0.24326121    -0.76060
Al1549     Al  0.22439180  0.90821119  0.18614226     1.90120
O1550       O  0.17688555  0.92231183  0.21654458    -0.75130
O1551       O  0.21553613  0.88684830  0.26496613    -0.74980
O1552       O  0.17367935  0.87715234  0.23536097    -0.80640
O1553       O  0.24680219  0.86716987  0.24613914    -0.78850
O1554       O  0.21720816  0.89040159  0.21358314    -1.14980
O1555       O  0.25919345  0.86412693  0.19819974    -0.74180
C1556       C  0.27184518  0.88386557  0.19443581     0.96540
C1557       C  0.17181873  0.91890095  0.19357171     0.92940
Al1558     Al  0.19822151  0.90332301  0.23808209     1.55560
O1559       O  0.22345677  0.87950486  0.16266792    -0.78800
C1560       C  0.23634640  0.87524323  0.26599762     0.97110
C1561       C  0.22645293  0.94676577  0.22674224     0.91990
O1562       O  0.22610152  0.94075055  0.20352241    -0.84120
O1563       O  0.97957233  0.94280817  0.15286595    -0.83580
C1564       C  0.06163283  0.98287871  0.09866339     0.95780
O1565       O  0.03873989  0.98353990  0.09272156    -0.72690
O1566       O  0.02853538  0.93582995  0.09622608    -0.76290
Al1567     Al  0.01180136  0.96520264  0.10688502     1.48980
C1568       C  0.02608717  0.91422746  0.10592506     0.91030
O1569       O  0.05033492  0.92554771  0.16123475    -0.82510
O1570       O  0.02614858  0.99223576  0.17795158    -0.76060
Al1571     Al  0.01571282  0.93545624  0.15619378     1.90120
O1572       O  0.06698014  0.96318871  0.16641473    -0.75130
O1573       O  0.02780001  0.01314876  0.13364448    -0.74980
O1574       O  0.06803550  0.98131463  0.12140684    -0.80640
O1575       O  0.99471166  0.99530206  0.11585763    -0.78850
O1576       O  0.02433216  0.96206457  0.13771370    -1.14980
O1577       O  0.98130577  0.94730328  0.11204234    -0.74180
C1578       C  0.96850013  0.94502398  0.13177581     0.96540
C1579       C  0.06895352  0.93953558  0.16648005     0.92940
Al1580     Al  0.04544279  0.98558416  0.14903806     1.55560
O1581       O  0.01616012  0.91159329  0.12768191    -0.78800
C1582       C  0.00619397  0.01482143  0.12353135     0.97110
C1583       C  0.01764332  0.97683941  0.19391276     0.91990
O1584       O  0.01462593  0.95375738  0.18810141    -0.84120
O1585       O  0.19319983  0.25852538  0.90124697    -0.83580
C1586       C  0.23613228  0.17248083  0.85584830     0.95780
O1587       O  0.23466095  0.19422680  0.84636396    -0.72690
O1588       O  0.18768634  0.20655155  0.84753689    -0.76290
Al1589     Al  0.21741802  0.22350770  0.85722205     1.48980
C1590       C  0.16604340  0.21053324  0.85644405     0.91030
O1591       O  0.17833052  0.18746484  0.91147549    -0.82510
O1592       O  0.24362354  0.22001153  0.92869345    -0.76060
Al1593     Al  0.18670814  0.22263199  0.90603527     1.90120
O1594       O  0.21614299  0.17657003  0.92428532    -0.75130
O1595       O  0.26576265  0.21056803  0.88566712    -0.74980
O1596       O  0.23509513  0.16915951  0.87934120    -0.80640
O1597       O  0.24779538  0.24094742  0.86404379    -0.78850
O1598       O  0.21415362  0.21403786  0.88892221    -1.14980
O1599       O  0.20061056  0.25516010  0.86064457    -0.74180
C1600       C  0.19667745  0.26866660  0.87981083     0.96540
C1601       C  0.19321256  0.17122664  0.92084049     0.92940
Al1602     Al  0.23823546  0.19563216  0.90339481     1.55560
O1603       O  0.16347160  0.22133887  0.87760774    -0.78800
C1604       C  0.26735122  0.23056262  0.87283064     0.97110
C1605       C  0.22694201  0.22663518  0.94428902     0.91990
O1606       O  0.20373577  0.22550424  0.93839225    -0.84120
O1607       O  0.15173729  0.97954450  0.93987439    -0.83580
C1608       C  0.10398385  0.06364038  0.98357473     0.95780
O1609       O  0.09435106  0.04239918  0.97913639    -0.72690
O1610       O  0.09879178  0.03289027  0.93196523    -0.76290
Al1611     Al  0.10611626  0.01409007  0.96108362     1.48980
C1612       C  0.10821103  0.02860365  0.91066186     0.91030
O1613       O  0.16205997  0.05094587  0.92671245    -0.82510
O1614       O  0.17687079  0.01560530  0.99124566    -0.76060
Al1615     Al  0.15664612  0.01555089  0.93370310     1.90120
O1616       O  0.17263177  0.06072417  0.96566400    -0.75130
O1617       O  0.13255057  0.02295328  0.01175658    -0.74980
O1618       O  0.12751033  0.06662812  0.98417290    -0.80640
O1619       O  0.11045370  0.99499186  0.99064536    -0.78850
O1620       O  0.13808971  0.02324431  0.96045076    -1.14980
O1621       O  0.11057277  0.98324969  0.94277885    -0.74180
C1622       C  0.13001623  0.96951455  0.94195944     0.96540
C1623       C  0.17026128  0.06681196  0.94270447     0.92940
Al1624     Al  0.15141920  0.04003265  0.98618655     1.55560
O1625       O  0.12914752  0.01706198  0.90887777    -0.78800
C1626       C  0.11844043  0.00372397  0.01126489     0.97110
C1627       C  0.19372277  0.01123632  0.97510646     0.91990
O1628       O  0.18857084  0.01297907  0.95179638    -0.84120
O1629       O  0.90087776  0.19318404  0.25939679    -0.83580
C1630       C  0.85531274  0.23393626  0.17244155     0.95780
O1631       O  0.84551718  0.23190534  0.19397993    -0.72690
O1632       O  0.84844453  0.18504470  0.20627945    -0.76290
Al1633     Al  0.85651295  0.21506967  0.22339815     1.48980
C1634       C  0.85780162  0.16377350  0.21112272     0.91030
O1635       O  0.91257309  0.17788660  0.18875635    -0.82510
O1636       O  0.92717516  0.24397195  0.22111378    -0.76060
Al1637     Al  0.90648016  0.18634814  0.22372947     1.90120
O1638       O  0.92416947  0.21611827  0.17787510    -0.75130
O1639       O  0.88362710  0.26444005  0.21122140    -0.74980
O1640       O  0.87890023  0.23377844  0.16958560    -0.80640
O1641       O  0.86184552  0.24558296  0.24095561    -0.78850
O1642       O  0.88850262  0.21307100  0.21462228    -1.14980
O1643       O  0.85997198  0.19833120  0.25505290    -0.74180
C1644       C  0.87903623  0.19565611  0.26900977     0.96540
C1645       C  0.92122611  0.19311963  0.17243837     0.92940
Al1646     Al  0.90240712  0.23762678  0.19645494     1.55560
O1647       O  0.87882383  0.16205571  0.22239652    -0.78800
C1648       C  0.87060741  0.26542840  0.23111518     0.97110
C1649       C  0.94339019  0.22793204  0.22779794     0.91990
O1650       O  0.93830359  0.20450745  0.22677680    -0.84120
O1651       O  0.94591894  0.14754544  0.98242722    -0.83580
C1652       C  0.98403336  0.10159280  0.07009446     0.95780
O1653       O  0.98372094  0.09201849  0.04835832    -0.72690
O1654       O  0.93740077  0.09448338  0.03455475    -0.76290
Al1655     Al  0.96780946  0.10313429  0.01846608     1.48980
C1656       C  0.91613602  0.10401862  0.03013085     0.91030
O1657       O  0.92925269  0.15894893  0.05265876    -0.82510
O1658       O  0.99620607  0.17411597  0.02237738    -0.76060
Al1659     Al  0.93856205  0.15288512  0.01795309     1.90120
O1660       O  0.96708987  0.17070819  0.06461373    -0.75130
O1661       O  0.01659756  0.13006225  0.03282412    -0.74980
O1662       O  0.98394443  0.12517628  0.07313689    -0.80640
O1663       O  0.99881941  0.10898438  0.00195695    -0.78850
O1664       O  0.96520389  0.13505394  0.02751904    -1.14980
O1665       O  0.95211463  0.10673100  0.98633485    -0.74180
C1666       C  0.94902820  0.12590426  0.97260135     0.96540
C1667       C  0.94389382  0.16811328  0.06915984     0.92940
Al1668     Al  0.98908562  0.14892519  0.04663910     1.55560
O1669       O  0.91438868  0.12509943  0.01893605    -0.78800
C1670       C  0.01830741  0.11733484  0.01277178     0.97110
C1671       C  0.98014689  0.19016151  0.01514586     0.91990
O1672       O  0.95677336  0.18472108  0.01528761    -0.84120
O1673       O  0.04579169  0.33709892  0.98163128    -0.83580
C1674       C  0.00277341  0.38266614  0.06707837     0.95780
O1675       O  0.00397494  0.39212338  0.04533282    -0.72690
O1676       O  0.05111589  0.39101737  0.03372878    -0.76290
Al1677     Al  0.02160965  0.38132666  0.01635637     1.48980
C1678       C  0.07285096  0.38232055  0.02978903     0.91030
O1679       O  0.06035324  0.32745503  0.05288055    -0.82510
O1680       O  0.99548173  0.30951727  0.01934582    -0.76060
Al1681     Al  0.05234737  0.33250134  0.01753947     1.90120
O1682       O  0.02246266  0.31423610  0.06283649    -0.75130
O1683       O  0.97314422  0.35272228  0.02853600    -0.74980
O1684       O  0.00340289  0.35910696  0.07032010    -0.80640
O1685       O  0.99145028  0.37455774  0.99852806    -0.78850
O1686       O  0.02475540  0.34956484  0.02575393    -1.14980
O1687       O  0.03886264  0.37785582  0.98507370    -0.74180
C1688       C  0.04197445  0.35855037  0.97154168     0.96540
C1689       C  0.04504868  0.31848102  0.06898055     0.92940
Al1690     Al  0.00049682  0.33500680  0.04376822     1.55560
O1691       O  0.07557018  0.36121262  0.01879728    -0.78800
C1692       C  0.97177545  0.36568910  0.00861920     0.97110
C1693       C  0.01232562  0.29369660  0.01359046     0.91990
O1694       O  0.03549428  0.29981764  0.01489056    -0.84120
O1695       O  0.08811392  0.29695832  0.25999942    -0.83580
C1696       C  0.13376687  0.25649979  0.17309545     0.95780
O1697       O  0.14332292  0.25756388  0.19480505    -0.72690
O1698       O  0.14129650  0.30435017  0.20761600    -0.76290
Al1699     Al  0.13235312  0.27429758  0.22431879     1.48980
C1700       C  0.13205903  0.32579728  0.21194298     0.91030
O1701       O  0.07726589  0.31315309  0.18966006    -0.82510
O1702       O  0.06133589  0.24685388  0.22081552    -0.76060
Al1703     Al  0.08299011  0.30413100  0.22443061     1.90120
O1704       O  0.06509676  0.27530187  0.17798697    -0.75130
O1705       O  0.10464496  0.22566442  0.21093895    -0.74980
O1706       O  0.11023268  0.25721417  0.16995402    -0.80640
O1707       O  0.12607545  0.24362785  0.24144883    -0.78850
O1708       O  0.10052876  0.27715378  0.21518296    -1.14980
O1709       O  0.12890204  0.29072486  0.25610565    -0.74180
C1710       C  0.10972930  0.29381734  0.26982939     0.96540
C1711       C  0.06813947  0.29843110  0.17321823     0.92940
Al1712     Al  0.08639701  0.25315848  0.19647402     1.55560
O1713       O  0.11109992  0.32790223  0.22329800    -0.78800
C1714       C  0.11727951  0.22407878  0.23104929     0.97110
C1715       C  0.04539981  0.26304942  0.22781672     0.91990
O1716       O  0.05083787  0.28642115  0.22717092    -0.84120
O1717       O  0.79628330  0.75821991  0.58993800    -0.83580
C1718       C  0.75406719  0.67352775  0.63773373     0.95780
O1719       O  0.75565383  0.69545216  0.64674016    -0.72690
O1720       O  0.80269419  0.70676704  0.64413879    -0.76290
Al1721     Al  0.77310494  0.72416942  0.63504603     1.48980
C1722       C  0.82420044  0.71036217  0.63478949     0.91030
O1723       O  0.81037150  0.68702292  0.58014475    -0.82510
O1724       O  0.74494244  0.71996428  0.56414681    -0.76060
Al1725     Al  0.80248957  0.72228986  0.58547008     1.90120
O1726       O  0.77202216  0.67635472  0.56875672    -0.75130
O1727       O  0.72393091  0.71166604  0.60803089    -0.74980
O1728       O  0.75427924  0.66983577  0.61426962    -0.80640
O1729       O  0.74282957  0.74206336  0.62881393    -0.78850
O1730       O  0.77540412  0.71424682  0.60338040    -1.14980
O1731       O  0.79044541  0.75536034  0.63080791    -0.74180
C1732       C  0.79330253  0.76861967  0.61130030     0.96540
C1733       C  0.79503438  0.67088622  0.57137020     0.92940
Al1734     Al  0.75073780  0.69598471  0.58983443     1.55560
O1735       O  0.82649265  0.72098581  0.61346386    -0.78800
C1736       C  0.72290951  0.73182698  0.62068417     0.97110
C1737       C  0.76132146  0.72619201  0.54805919     0.91990
O1738       O  0.78464681  0.72498668  0.55350210    -0.84120
O1739       O  0.83825490  0.48005879  0.54778980    -0.83580
C1740       C  0.88422557  0.56700925  0.50727360     0.95780
O1741       O  0.89390848  0.54544600  0.50966070    -0.72690
O1742       O  0.89068765  0.53335609  0.55628582    -0.76290
Al1743     Al  0.88275973  0.51608038  0.52638114     1.48980
C1744       C  0.88124335  0.52882528  0.57753694     0.91030
O1745       O  0.82653552  0.55080773  0.56279934    -0.82510
O1746       O  0.81217277  0.51827133  0.49670381    -0.76060
Al1747     Al  0.83266591  0.51583914  0.55454065     1.90120
O1748       O  0.81504306  0.56172737  0.52453093    -0.75130
O1749       O  0.85647349  0.52838935  0.47652683    -0.74980
O1750       O  0.86061895  0.56997362  0.50716402    -0.80640
O1751       O  0.87769476  0.49853975  0.49598336    -0.78850
O1752       O  0.85077601  0.52489495  0.52796026    -1.14980
O1753       O  0.87919059  0.48439038  0.54313312    -0.74180
C1754       C  0.86009921  0.47039584  0.54549395     0.96540
C1755       C  0.81774333  0.56705040  0.54757942     0.92940
Al1756     Al  0.83703348  0.54300020  0.50317659     1.55560
O1757       O  0.86027087  0.51734626  0.57919424    -0.78800
C1758       C  0.87100055  0.50953652  0.47600353     0.97110
C1759       C  0.79571975  0.51209945  0.51273740     0.91990
O1760       O  0.80090842  0.51288548  0.53613705    -0.84120
O1761       O  0.73323490  0.40291415  0.29581491    -0.83580
C1762       C  0.81771630  0.35278082  0.25559822     0.95780
O1763       O  0.79546013  0.34459551  0.25628834    -0.72690
O1764       O  0.78280197  0.34720558  0.30288849    -0.76290
Al1765     Al  0.76671629  0.35721779  0.27296510     1.48980
C1766       C  0.77939755  0.35665136  0.32437404     0.91030
O1767       O  0.80378863  0.41111205  0.31256594    -0.82510
O1768       O  0.77522696  0.42861908  0.24629026    -0.76060
Al1769     Al  0.76900950  0.40643551  0.30317935     1.90120
O1770       O  0.81776658  0.42085261  0.27480327    -0.75130
O1771       O  0.78178224  0.38477758  0.22469406    -0.74980
O1772       O  0.82226274  0.37604848  0.25621948    -0.80640
O1773       O  0.75014456  0.36458114  0.24223163    -0.78850
O1774       O  0.77769525  0.38855006  0.27614637    -1.14980
O1775       O  0.73513165  0.36209431  0.28930988    -0.74180
C1776       C  0.72233942  0.38189446  0.29227362     0.96540
C1777       C  0.82152330  0.41796936  0.29809467     0.92940
Al1778     Al  0.79754648  0.40163367  0.25239948     1.55560
O1779       O  0.76906812  0.37812901  0.32674659    -0.78800
C1780       C  0.76127065  0.37277672  0.22281270     0.97110
C1781       C  0.76771755  0.44422989  0.26256502     0.91990
O1782       O  0.76758739  0.43843727  0.28575928    -0.84120
O1783       O  0.01291042  0.44278527  0.33764793    -0.83580
C1784       C  0.93305742  0.48923385  0.39069764     0.95780
O1785       O  0.95574573  0.48635563  0.39670315    -0.72690
O1786       O  0.96333512  0.43800078  0.39419009    -0.76290
Al1787     Al  0.98158994  0.46649842  0.38330523     1.48980
C1788       C  0.96558567  0.41617770  0.38488939     0.91030
O1789       O  0.94170550  0.42765455  0.32982609    -0.82510
O1790       O  0.96937401  0.49276306  0.31178137    -0.76060
Al1791     Al  0.97668450  0.43625109  0.33457403     1.90120
O1792       O  0.92677238  0.46596323  0.32381954    -0.75130
O1793       O  0.96820011  0.51474689  0.35542175    -0.74980
O1794       O  0.92619874  0.48607001  0.36822992    -0.80640
O1795       O  0.00011168  0.49580820  0.37423906    -0.78850
O1796       O  0.96907896  0.46353549  0.35254698    -1.14980
O1797       O  0.01121327  0.44703420  0.37847675    -0.74180
C1798       C  0.02400527  0.44509217  0.35869311     0.96540
C1799       C  0.92362347  0.44240734  0.32461537     0.92940
Al1800     Al  0.94932677  0.48785745  0.34055901     1.55560
O1801       O  0.97570101  0.41301094  0.36334149    -0.78800
C1802       C  0.98936069  0.51574361  0.36648053     0.97110
C1803       C  0.97727335  0.47651064  0.29641437     0.91990
O1804       O  0.97837433  0.45344297  0.30257248    -0.84120
O1805       O  0.26264025  0.27198501  0.39486977    -0.83580
C1806       C  0.16168447  0.27462196  0.35956161     0.95780
O1807       O  0.17964653  0.26196417  0.35071497    -0.72690
O1808       O  0.21365634  0.29735287  0.34405597    -0.76290
Al1809     Al  0.21486810  0.26464091  0.35788898     1.48980
C1810       C  0.22922260  0.31465896  0.34915521     0.91030
O1811       O  0.21576846  0.32310085  0.40602712    -0.82510
O1812       O  0.20519054  0.25797398  0.43585467    -0.76060
Al1813     Al  0.23747162  0.29665197  0.39999997     1.90120
O1814       O  0.18282739  0.30346841  0.42175816    -0.75130
O1815       O  0.18389657  0.23429350  0.39607109    -0.74980
O1816       O  0.16247922  0.28195285  0.38214653    -0.80640
O1817       O  0.21626459  0.23172033  0.36992162    -0.78850
O1818       O  0.21270629  0.27688018  0.38887468    -1.14980
O1819       O  0.25050692  0.26338725  0.35639248    -0.74180
C1820       C  0.26686814  0.26261527  0.37356881     0.96540
C1821       C  0.19469715  0.32364360  0.41666500     0.92940
Al1822     Al  0.18570629  0.26983885  0.40756779     1.55560
O1823       O  0.24352447  0.31297073  0.36821206    -0.78800
C1824       C  0.19939034  0.22126091  0.38293822     0.97110
C1825       C  0.22448493  0.26828095  0.44544721     0.91990
O1826       O  0.23632773  0.28521899  0.43373452    -0.84120
O1827       O  0.14157580  0.47778662  0.51360291    -0.83580
C1828       C  0.11098131  0.46941102  0.41139581     0.95780
O1829       O  0.10059742  0.48188053  0.42860440    -0.72690
O1830       O  0.09353062  0.44808575  0.46415691    -0.76290
Al1831     Al  0.10637922  0.48124520  0.46407247     1.48980
C1832       C  0.09818469  0.43213697  0.48123387     0.91030
O1833       O  0.15578936  0.42424962  0.47023237    -0.82510
O1834       O  0.18509080  0.48917490  0.45796179    -0.76060
Al1835     Al  0.14832200  0.45172385  0.49027590     1.90120
O1836       O  0.17190841  0.44263221  0.43672437    -0.75130
O1837       O  0.14623112  0.51160159  0.43436913    -0.74980
O1838       O  0.13381252  0.46320733  0.41350916    -0.80640
O1839       O  0.11721106  0.51443574  0.46419078    -0.78850
O1840       O  0.13785283  0.46992034  0.46398873    -1.14980
O1841       O  0.10336857  0.48446914  0.49940220    -0.74180
C1842       C  0.11988445  0.48694343  0.51626765     0.96540
C1843       C  0.16652722  0.42289477  0.44922056     0.92940
Al1844     Al  0.15776285  0.47628426  0.43771741     1.55560
O1845       O  0.11666181  0.43518606  0.49603460    -0.78800
C1846       C  0.13174606  0.52469156  0.44850963     0.97110
C1847       C  0.19391184  0.48001670  0.47814482     0.91990
O1848       O  0.18186565  0.46348940  0.49014443    -0.84120
O1849       O  0.29694387  0.73483181  0.40016088    -0.83580
C1850       C  0.25642178  0.82015602  0.35278987     0.95780
O1851       O  0.25624587  0.79805817  0.34403686    -0.72690
O1852       O  0.30328284  0.78626562  0.34591166    -0.76290
Al1853     Al  0.27370982  0.76918479  0.35553681     1.48980
C1854       C  0.32488737  0.78290552  0.35512309     0.91030
O1855       O  0.31205019  0.80595377  0.41032437    -0.82510
O1856       O  0.24609628  0.77420895  0.42657208    -0.76060
Al1857     Al  0.30362619  0.77076474  0.40475519     1.90120
O1858       O  0.27391062  0.81715449  0.42186442    -0.75130
O1859       O  0.22510356  0.78281680  0.38268223    -0.74980
O1860       O  0.25672433  0.82399068  0.37623679    -0.80640
O1861       O  0.24349890  0.75161683  0.36257248    -0.78850
O1862       O  0.27655752  0.77920612  0.38714007    -1.14980
O1863       O  0.29088766  0.73784815  0.35940206    -0.74180
C1864       C  0.29355637  0.72447454  0.37883662     0.96540
C1865       C  0.29699811  0.82223425  0.41934907     0.92940
Al1866     Al  0.25232954  0.79800702  0.40077874     1.55560
O1867       O  0.32742432  0.77218658  0.37641351    -0.78800
C1868       C  0.22378788  0.76220775  0.37076720     0.97110
C1869       C  0.26243726  0.76735506  0.44246571     0.91990
O1870       O  0.28578036  0.76802556  0.43685331    -0.84120
O1871       O  0.33834766  0.01318507  0.44485961    -0.83580
C1872       C  0.38354331  0.92643931  0.48629697     0.95780
O1873       O  0.39340662  0.94799301  0.48452254    -0.72690
O1874       O  0.39129372  0.96027962  0.43765194    -0.76290
Al1875     Al  0.38262393  0.97741984  0.46757292     1.48980
C1876       C  0.38227347  0.96502311  0.41624035     0.91030
O1877       O  0.32750418  0.94238802  0.42959667    -0.82510
O1878       O  0.31140748  0.97506068  0.49521669    -0.76060
Al1879     Al  0.33313738  0.97745050  0.43803824     1.90120
O1880       O  0.31514999  0.93149946  0.46757081    -0.75130
O1881       O  0.35470526  0.96546724  0.51665692    -0.74980
O1882       O  0.35997707  0.92363167  0.48608666    -0.80640
O1883       O  0.37686645  0.99505425  0.49801385    -0.78850
O1884       O  0.35068890  0.96854512  0.46509682    -1.14980
O1885       O  0.37919145  0.00905053  0.45084677    -0.74180
C1886       C  0.36006429  0.02290027  0.44792630     0.96540
C1887       C  0.31857185  0.92604839  0.44464115     0.92940
Al1888     Al  0.33640443  0.95042955  0.48946487     1.55560
O1889       O  0.36124946  0.97628140  0.41421574    -0.78800
C1890       C  0.36780174  0.98535344  0.51777458     0.97110
C1891       C  0.29531242  0.98124716  0.47888430     0.91990
O1892       O  0.30088157  0.98023842  0.45559036    -0.84120
O1893       O  0.75822705  0.58978983  0.79772638    -0.83580
C1894       C  0.67092574  0.63445692  0.75705832     0.95780
O1895       O  0.69244410  0.64446687  0.75844614    -0.72690
O1896       O  0.70512054  0.64228286  0.80512654    -0.76290
Al1897     Al  0.72212648  0.63386455  0.77507670     1.48980
C1898       C  0.70939809  0.63293748  0.82649762     0.91030
O1899       O  0.68732124  0.57797189  0.81257737    -0.82510
O1900       O  0.72041208  0.56311537  0.74672617    -0.76060
Al1901     Al  0.72246369  0.58409621  0.80431031     1.90120
O1902       O  0.67719798  0.56555663  0.77455036    -0.75130
O1903       O  0.70959713  0.60658590  0.72598576    -0.74980
O1904       O  0.66827655  0.61082937  0.75713935    -0.80640
O1905       O  0.73954307  0.62839331  0.74440068    -0.78850
O1906       O  0.71348576  0.60183808  0.77741695    -1.14980
O1907       O  0.75392662  0.63060706  0.79157372    -0.74180
C1908       C  0.76787088  0.61157701  0.79473697     0.96540
C1909       C  0.67117177  0.56916350  0.79726221     0.92940
Al1910     Al  0.69537462  0.58761925  0.75301458     1.55560
O1911       O  0.72075091  0.61194127  0.82844159    -0.78800
C1912       C  0.72938207  0.61975511  0.72467980     0.97110
C1913       C  0.72686755  0.54688101  0.76286720     0.91990
O1914       O  0.72577045  0.55210842  0.78625818    -0.84120
O1915       O  0.47987676  0.54708148  0.84006067    -0.83580
C1916       C  0.56602338  0.50663349  0.88686539     0.95780
O1917       O  0.54410778  0.50728407  0.89602386    -0.72690
O1918       O  0.53154526  0.55412674  0.89398772    -0.76290
Al1919     Al  0.51484663  0.52420581  0.88466254     1.48980
C1920       C  0.52731383  0.57563404  0.88487374     0.91030
O1921       O  0.55053418  0.56302504  0.83015762    -0.82510
O1922       O  0.51956599  0.49684096  0.81341315    -0.76060
Al1923     Al  0.51561228  0.55412699  0.83544465     1.90120
O1924       O  0.56242489  0.52514616  0.81819798    -0.75130
O1925       O  0.52841791  0.47551816  0.85709034    -0.74980
O1926       O  0.56952095  0.50708579  0.86339259    -0.80640
O1927       O  0.49766903  0.49371503  0.87804473    -0.78850
O1928       O  0.52450017  0.52707204  0.85298216    -1.14980
O1929       O  0.48316615  0.54082600  0.88084847    -0.74180
C1930       C  0.46970587  0.54404815  0.86153274     0.96540
C1931       C  0.56709248  0.54830279  0.82117716     0.92940
Al1932     Al  0.54340873  0.50302691  0.83909285     1.55560
O1933       O  0.51641809  0.57786079  0.86368931    -0.78800
C1934       C  0.50811458  0.47407853  0.86950522     0.97110
C1935       C  0.51284250  0.51320379  0.79750703     0.91990
O1936       O  0.51328986  0.53651513  0.80323398    -0.84120
O1937       O  0.58863970  0.79407346  0.76149003    -0.83580
C1938       C  0.63583278  0.75348101  0.67574141     0.95780
O1939       O  0.64441698  0.75324561  0.69785446    -0.72690
O1940       O  0.64297246  0.80023585  0.71023677    -0.76290
Al1941     Al  0.63292971  0.77046956  0.72680170     1.48980
C1942       C  0.63391082  0.82189766  0.71387920     0.91030
O1943       O  0.57843620  0.81036311  0.69067456    -0.82510
O1944       O  0.56149348  0.74405848  0.72079901    -0.76060
Al1945     Al  0.58403507  0.80117281  0.72563149     1.90120
O1946       O  0.56703081  0.77254953  0.67833206    -0.75130
O1947       O  0.60505058  0.72246830  0.71236787    -0.74980
O1948       O  0.61242475  0.75449485  0.67172318    -0.80640
O1949       O  0.62538924  0.74001389  0.74386688    -0.78850
O1950       O  0.60138244  0.77397812  0.71671660    -1.14980
O1951       O  0.62928880  0.78719946  0.75826618    -0.74180
C1952       C  0.61000892  0.79044665  0.77171230     0.96540
C1953       C  0.56945073  0.79581620  0.67395013     0.92940
Al1954     Al  0.58755993  0.75026813  0.69740705     1.55560
O1955       O  0.61261160  0.82453312  0.72454276    -0.78800
C1956       C  0.61689929  0.72059719  0.73294876     0.97110
C1957       C  0.54583270  0.76043215  0.72809239     0.91990
O1958       O  0.55174293  0.78370592  0.72808998    -0.84120
O1959       O  0.54229866  0.84388827  0.48469567    -0.83580
C1960       C  0.49827805  0.88787139  0.57085833     0.95780
O1961       O  0.50039863  0.89772100  0.54937165    -0.72690
O1962       O  0.54772334  0.89685000  0.53780521    -0.76290
Al1963     Al  0.51821279  0.88733438  0.52028708     1.48980
C1964       C  0.56943902  0.88809957  0.53373094     0.91030
O1965       O  0.55763073  0.83266874  0.55546924    -0.82510
O1966       O  0.49259993  0.81515564  0.52282169    -0.76060
Al1967     Al  0.54912177  0.83862539  0.52046899     1.90120
O1968       O  0.51977362  0.81998216  0.56657018    -0.75130
O1969       O  0.46989152  0.85797172  0.53190516    -0.74980
O1970       O  0.49976087  0.86436392  0.57390663    -0.80640
O1971       O  0.48818262  0.88056078  0.50239584    -0.78850
O1972       O  0.52154883  0.85543665  0.52930466    -1.14980
O1973       O  0.53544230  0.88454011  0.48877348    -0.74180
C1974       C  0.53854805  0.86546931  0.47489563     0.96540
C1975       C  0.54283317  0.82313122  0.57168933     0.92940
Al1976     Al  0.49744795  0.84050207  0.54727599     1.55560
O1977       O  0.57210520  0.86729276  0.52220778    -0.78800
C1978       C  0.46857275  0.87116823  0.51211642     0.97110
C1979       C  0.50945474  0.79979056  0.51612868     0.91990
O1980       O  0.53255251  0.80603469  0.51723996    -0.84120
O1981       O  0.39898192  0.29648470  0.73184538    -0.83580
C1982       C  0.35344609  0.25375829  0.81759931     0.95780
O1983       O  0.34397395  0.25517534  0.79589774    -0.72690
O1984       O  0.34600860  0.30245523  0.78480357    -0.76290
Al1985     Al  0.35494334  0.27292688  0.76706478     1.48980
C1986       C  0.35516117  0.32406209  0.78109901     0.91030
O1987       O  0.41034011  0.31067941  0.80281856    -0.82510
O1988       O  0.42647138  0.24535363  0.77000601    -0.76060
Al1989     Al  0.40436850  0.30269997  0.76773036     1.90120
O1990       O  0.42190690  0.27245826  0.81365813    -0.75130
O1991       O  0.38289459  0.22389727  0.77869056    -0.74980
O1992       O  0.37697051  0.25407322  0.82075686    -0.80640
O1993       O  0.36114745  0.24278697  0.74893283    -0.78850
O1994       O  0.38685385  0.27544800  0.77622793    -1.14980
O1995       O  0.35820380  0.29046490  0.73589058    -0.74180
C1996       C  0.37726344  0.29365489  0.72206482     0.96540
C1997       C  0.41835408  0.29530864  0.81933181     0.92940
Al1998     Al  0.40097590  0.25087626  0.79425513     1.55560
O1999       O  0.37613006  0.32649552  0.76975994    -0.78800
C2000       C  0.36998446  0.22290902  0.75870682     0.97110
C2001       C  0.44232683  0.26185846  0.76351691     0.91990
O2002       O  0.43654261  0.28513589  0.76444227    -0.84120
O2003       O  0.44211183  0.34026669  0.00979561    -0.83580
C2004       C  0.48149038  0.38786875  0.92324795     0.95780
O2005       O  0.47953754  0.39707388  0.94501595    -0.72690
O2006       O  0.43283552  0.39331349  0.95717068    -0.76290
Al2007     Al  0.46285646  0.38522620  0.97413367     1.48980
C2008       C  0.41159385  0.38368583  0.96149159     0.91030
O2009       O  0.42541478  0.32898036  0.93967238    -0.82510
O2010       O  0.49213769  0.31412047  0.96919395    -0.76060
Al2011     Al  0.43458629  0.33500705  0.97418608     1.90120
O2012       O  0.46348578  0.31922519  0.92622812    -0.75130
O2013       O  0.51234844  0.35841201  0.96128436    -0.74980
O2014       O  0.48134138  0.36439454  0.91980302    -0.80640
O2015       O  0.49347298  0.37979023  0.99137576    -0.78850
O2016       O  0.46101499  0.35330015  0.96473340    -1.14980
O2017       O  0.44619879  0.38126821  0.00585257    -0.74180
C2018       C  0.44456087  0.36198155  0.01967102     0.96540
C2019       C  0.44006554  0.32127269  0.92245815     0.92940
Al2020     Al  0.48537090  0.34002410  0.94576432     1.55560
O2021       O  0.40994755  0.36275491  0.97311353    -0.78800
C2022       C  0.51336601  0.37152178  0.98118883     0.97110
C2023       C  0.47636411  0.29785457  0.97633374     0.91990
O2024       O  0.45297247  0.30313442  0.97654478    -0.84120
O2025       O  0.26243238  0.39877273  0.26514019    -0.83580
C2026       C  0.27191344  0.36198262  0.16416742     0.95780
O2027       O  0.26137662  0.35195833  0.18275799    -0.72690
O2028       O  0.29481767  0.34930432  0.21887203    -0.76290
Al2029     Al  0.26110033  0.36048161  0.21752637     1.48980
C2030       C  0.31028603  0.35576001  0.23576570     0.91030
O2031       O  0.31574746  0.41278511  0.22104624    -0.82510
O2032       O  0.25122030  0.43940520  0.20593303    -0.76060
Al2033     Al  0.28839481  0.40528090  0.24141329     1.90120
O2034       O  0.29749678  0.42459008  0.18565979    -0.75130
O2035       O  0.22909770  0.39822557  0.18584676    -0.74980
O2036       O  0.27687219  0.38521504  0.16460799    -0.80640
O2037       O  0.22736156  0.36962696  0.21626449    -0.78850
O2038       O  0.27095405  0.39243907  0.21550297    -1.14980
O2039       O  0.25737107  0.35961700  0.25293913    -0.74180
C2040       C  0.25431222  0.37682008  0.26900878     0.96540
C2041       C  0.31710119  0.42131944  0.19900652     0.92940
Al2042     Al  0.26409214  0.41043383  0.18784588     1.55560
O2043       O  0.30617500  0.37486493  0.24942627    -0.78800
C2044       C  0.21661927  0.38347698  0.20024179     0.97110
C2045       C  0.25976705  0.44953860  0.22574557     0.91990
O2046       O  0.27548863  0.43815796  0.23923296    -0.84120
O2047       O  0.46751306  0.51562567  0.14266970    -0.83580
C2048       C  0.46569024  0.41410714  0.10934870     0.95780
O2049       O  0.47832996  0.43188858  0.10008014    -0.72690
O2050       O  0.44343627  0.46584643  0.09172218    -0.76290
Al2051     Al  0.47588661  0.46729102  0.10627370     1.48980
C2052       C  0.42626304  0.48174195  0.09614078     0.91030
O2053       O  0.41604008  0.46820563  0.15137954    -0.82510
O2054       O  0.48135452  0.46114658  0.18483632    -0.76060
Al2055     Al  0.44249291  0.49044698  0.14678526     1.90120
O2056       O  0.43611481  0.43747228  0.17079004    -0.75130
O2057       O  0.50554409  0.43741913  0.14600591    -0.74980
O2058       O  0.45838846  0.41541029  0.13201040    -0.80640
O2059       O  0.50855396  0.46878366  0.11875028    -0.78850
O2060       O  0.46303099  0.46584952  0.13699182    -1.14980
O2061       O  0.47745229  0.50302032  0.10451818    -0.74180
C2062       C  0.47799807  0.51945431  0.12172274     0.96540
C2063       C  0.41576106  0.44818981  0.16400190     0.92940
Al2064     Al  0.46998856  0.43981311  0.15694114     1.55560
O2065       O  0.42805153  0.49673099  0.11454533    -0.78800
C2066       C  0.51873678  0.45217821  0.13227481     0.97110
C2067       C  0.46881446  0.47953758  0.19379926     0.91990
O2068       O  0.45145801  0.48936910  0.18096466    -0.84120
O2069       O  0.39405186  0.27227542  0.27177053    -0.83580
C2070       C  0.35740340  0.17131676  0.27301667     0.95780
O2071       O  0.34852372  0.18967790  0.26092729    -0.72690
O2072       O  0.34339718  0.22318394  0.29687305    -0.76290
Al2073     Al  0.35639224  0.22487088  0.26401702     1.48980
C2074       C  0.34901522  0.23832765  0.31435380     0.91030
O2075       O  0.40614728  0.22373787  0.32117793    -0.82510
O2076       O  0.43402647  0.21454849  0.25500979    -0.76060
Al2077     Al  0.39963126  0.24627109  0.29549433     1.90120
O2078       O  0.42096409  0.19122043  0.30017314    -0.75130
O2079       O  0.39330984  0.19389415  0.23235731    -0.74980
O2080       O  0.38025434  0.17171863  0.27971139    -0.80640
O2081       O  0.36767515  0.22675217  0.23083022    -0.78850
O2082       O  0.38764876  0.22209500  0.27543172    -1.14980
O2083       O  0.35530136  0.26059109  0.26359237    -0.74180
C2084       C  0.37251405  0.27693737  0.26315560     0.96540
C2085       C  0.41648777  0.20249368  0.32075671     0.92940
Al2086     Al  0.40579004  0.19499014  0.26731850     1.55560
O2087       O  0.36836630  0.25225722  0.31279860    -0.78800
C2088       C  0.38012294  0.20973037  0.21988873     0.97110
C2089       C  0.44411970  0.23360312  0.26537452     0.91990
O2090       O  0.43305266  0.24508619  0.28298809    -0.84120
O2091       O  0.51676090  0.14661127  0.47092725    -0.83580
C2092       C  0.41551992  0.11079338  0.46513639     0.95780
O2093       O  0.43388169  0.10138241  0.47670417    -0.72690
O2094       O  0.46886565  0.09677629  0.44180608    -0.76290
Al2095     Al  0.46897355  0.10915315  0.47505906     1.48980
C2096       C  0.48517074  0.10265150  0.42543042     0.91030
O2097       O  0.47148260  0.16022407  0.41879330    -0.82510
O2098       O  0.45797251  0.18711665  0.48379055    -0.76060
Al2099     Al  0.49232628  0.15285235  0.44569462     1.90120
O2100       O  0.43700352  0.17327834  0.43778227    -0.75130
O2101       O  0.43738864  0.14675992  0.50602805    -0.74980
O2102       O  0.41636093  0.13352432  0.45828170    -0.80640
O2103       O  0.46931134  0.11991990  0.50836713    -0.78850
O2104       O  0.46687089  0.14064264  0.46405344    -1.14980
O2105       O  0.50455539  0.10768266  0.47720514    -0.74180
C2106       C  0.52079590  0.12484813  0.47935022     0.96540
C2107       C  0.44982942  0.16968868  0.41791918     0.92940
Al2108     Al  0.43941061  0.15878903  0.47100121     1.55560
O2109       O  0.49909173  0.12186657  0.42825589    -0.78800
C2110       C  0.45272296  0.13332697  0.51885287     0.97110
C2111       C  0.47775741  0.19706683  0.47498628     0.91990
O2112       O  0.49069679  0.18591967  0.45854605    -0.84120
C2113       C  0.44436715  0.17562713  0.34727977    -0.15130
C2114       C  0.42345031  0.19150802  0.34508341     0.07020
C2115       C  0.41004348  0.19876514  0.36683252    -0.15130
C2116       C  0.41813431  0.19118168  0.39061699    -0.15130
C2117       C  0.43988356  0.17642235  0.39297571     0.07020
C2118       C  0.45261652  0.16822563  0.37109036    -0.15130
H2119       H  0.45490436  0.16984591  0.33075130     0.11010
H2120       H  0.39356512  0.21080940  0.36545581     0.11010
H2121       H  0.40784212  0.19745675  0.40711494     0.11010
H2122       H  0.46926519  0.15642210  0.37236150     0.11010
C2123       C  0.34006456  0.32231717  0.22239271    -0.15130
C2124       C  0.33242020  0.33995234  0.24057040     0.07020
C2125       C  0.34417241  0.34024777  0.26431510    -0.15130
C2126       C  0.36092787  0.32102413  0.27084222    -0.15130
C2127       C  0.36600854  0.30169679  0.25357598     0.07020
C2128       C  0.35676525  0.30319327  0.22892752    -0.15130
H2129       H  0.33162472  0.32210784  0.20379167     0.11010
H2130       H  0.33867909  0.35385644  0.27854646     0.11010
H2131       H  0.36758235  0.31968795  0.29011874     0.11010
H2132       H  0.36037508  0.28811072  0.21559082     0.11010
C2133       C  0.36391255  0.41858742  0.20220156    -0.15130
C2134       C  0.34235624  0.42689800  0.18899095     0.07020
C2135       C  0.34534139  0.44002793  0.16630495    -0.15130
C2136       C  0.36945306  0.44585243  0.15763876    -0.15130
C2137       C  0.39094551  0.43847738  0.17142369     0.07020
C2138       C  0.38804013  0.42425123  0.19341655    -0.15130
H2139       H  0.36216219  0.40794915  0.21956099     0.11010
H2140       H  0.32910329  0.44629720  0.15560122     0.11010
H2141       H  0.37128893  0.45669630  0.14040593     0.11010
H2142       H  0.40431153  0.41845142  0.20433450     0.11010
C2143       C  0.47226140  0.36656371  0.05697143    -0.15130
C2144       C  0.44762837  0.36611364  0.04716767     0.07020
C2145       C  0.42828049  0.37778585  0.06111135    -0.15130
C2146       C  0.43372663  0.39080462  0.08362987    -0.15130
C2147       C  0.45873498  0.39298364  0.09225516     0.07020
C2148       C  0.47779876  0.38007021  0.07907849    -0.15130
H2149       H  0.48770567  0.35872367  0.04609506     0.11010
H2150       H  0.40935710  0.37871943  0.05345392     0.11010
H2151       H  0.41882718  0.40138340  0.09280852     0.11010
H2152       H  0.49732295  0.38214881  0.08476130     0.11010
C2153       C  0.42510815  0.32822961  0.85327387    -0.15130
C2154       C  0.42269179  0.30287055  0.84593915     0.07020
C2155       C  0.42353215  0.28396725  0.86468724    -0.15130
C2156       C  0.42758524  0.29010854  0.88995864    -0.15130
C2157       C  0.43063744  0.31528100  0.89712775     0.07020
C2158       C  0.42929581  0.33435749  0.87870646    -0.15130
H2159       H  0.42439002  0.34316726  0.83934684     0.11010
H2160       H  0.42126735  0.26423994  0.85980468     0.11010
H2161       H  0.42912398  0.27514977  0.90381272     0.11010
H2162       H  0.43236004  0.35390225  0.88391612     0.11010
C2163       C  0.54357951  0.79119437  0.63522119    -0.15130
C2164       C  0.56200027  0.80482040  0.64853068     0.07020
C2165       C  0.57512603  0.82420097  0.63595627    -0.15130
C2166       C  0.56994397  0.82958596  0.61043308    -0.15130
C2167       C  0.55138833  0.81583388  0.59730213     0.07020
C2168       C  0.53824796  0.79671863  0.61010258    -0.15130
H2169       H  0.53331041  0.77599279  0.64426354     0.11010
H2170       H  0.58978085  0.83465246  0.64562183     0.11010
H2171       H  0.57996607  0.84479942  0.60115918     0.11010
H2172       H  0.52366233  0.78597863  0.60062941     0.11010
C2173       C  0.51303530  0.42748889  0.87471965    -0.15130
C2174       C  0.49781088  0.44922816  0.87627055     0.07020
C2175       C  0.47427141  0.44777729  0.88826477    -0.15130
C2176       C  0.46759613  0.42606961  0.90136627    -0.15130
C2177       C  0.48422539  0.40553014  0.90239505     0.07020
C2178       C  0.50623475  0.40562651  0.88782530    -0.15130
H2179       H  0.53121814  0.42810357  0.86540699     0.11010
H2180       H  0.46198791  0.46410102  0.88934952     0.11010
H2181       H  0.45047375  0.42612442  0.91255496     0.11010
H2182       H  0.51930879  0.38991867  0.88868250     0.11010
C2183       C  0.63391968  0.57298632  0.82704764    -0.15130
C2184       C  0.64461562  0.56386797  0.80452293     0.07020
C2185       C  0.62882187  0.55166828  0.78699013    -0.15130
C2186       C  0.60326859  0.54818112  0.79192425    -0.15130
C2187       C  0.59258804  0.55702269  0.81437184     0.07020
C2188       C  0.60801228  0.56960001  0.83192682    -0.15130
H2189       H  0.64548560  0.58280471  0.84072076     0.11010
H2190       H  0.63622633  0.54461605  0.76930347     0.11010
H2191       H  0.59185305  0.53798836  0.77837079     0.11010
H2192       H  0.60024372  0.57587617  0.84975377     0.11010
C2193       C  0.64821508  0.67150367  0.77245737    -0.15130
C2194       C  0.64943750  0.65147514  0.75523480     0.07020
C2195       C  0.63481426  0.65208765  0.73330761    -0.15130
C2196       C  0.62162752  0.67408735  0.72712840    -0.15130
C2197       C  0.62322805  0.69546429  0.74285234     0.07020
C2198       C  0.63509627  0.69337661  0.76636731    -0.15130
H2199       H  0.65951509  0.67120138  0.78947187     0.11010
H2200       H  0.63582253  0.63680373  0.71976826     0.11010
H2201       H  0.61236338  0.67516898  0.70896118     0.11010
H2202       H  0.63624292  0.70939787  0.77901288     0.11010
C2203       C  0.37572762  0.06355380  0.43005501    -0.15130
C2204       C  0.36446912  0.05036498  0.45013606     0.07020
C2205       C  0.36644071  0.06044657  0.47456227    -0.15130
C2206       C  0.38119677  0.08192546  0.47916418    -0.15130
C2207       C  0.39383056  0.09414144  0.45934690     0.07020
C2208       C  0.39005170  0.08546296  0.43458776    -0.15130
H2209       H  0.37547042  0.05558543  0.41124802     0.11010
H2210       H  0.35888260  0.05009157  0.49049215     0.11010
H2211       H  0.38439034  0.08780895  0.49846804     0.11010
H2212       H  0.40027235  0.09405069  0.41910931     0.11010
C2213       C  0.40047558  0.89019794  0.51048122    -0.15130
C2214       C  0.40059963  0.90504167  0.48866900     0.07020
C2215       C  0.42098300  0.90371086  0.47189473    -0.15130
C2216       C  0.44246728  0.89017113  0.47834628    -0.15130
C2217       C  0.44379669  0.87795056  0.50175003     0.07020
C2218       C  0.42209070  0.87656870  0.51701349    -0.15130
H2219       H  0.38487872  0.89126852  0.52365140     0.11010
H2220       H  0.42118989  0.91509607  0.45490918     0.11010
H2221       H  0.45877944  0.89119640  0.46607901     0.11010
H2222       H  0.42263831  0.86711437  0.53511655     0.11010
C2223       C  0.29206780  0.86004654  0.44630399    -0.15130
C2224       C  0.30507838  0.84792871  0.42668482     0.07020
C2225       C  0.32216176  0.86201142  0.41203278    -0.15130
C2226       C  0.32588552  0.88789769  0.41691526    -0.15130
C2227       C  0.31270464  0.89989194  0.43662186     0.07020
C2228       C  0.29590912  0.88555911  0.45127895    -0.15130
H2229       H  0.27852619  0.84976901  0.45767220     0.11010
H2230       H  0.33194169  0.85323071  0.39638662     0.11010
H2231       H  0.33934858  0.89838331  0.40566766     0.11010
H2232       H  0.28566534  0.89411496  0.46676164     0.11010
C2233       C  0.22075727  0.35506551  0.29185355    -0.15130
C2234       C  0.24276786  0.36965185  0.29279765     0.07020
C2235       C  0.25746066  0.36994666  0.31471276    -0.15130
C2236       C  0.25193928  0.35320979  0.33428529    -0.15130
C2237       C  0.23169316  0.33621242  0.33190333     0.07020
C2238       C  0.21516106  0.33847994  0.31136460    -0.15130
H2239       H  0.20935069  0.35462770  0.27489293     0.11010
H2240       H  0.27472068  0.38088668  0.31547009     0.11010
H2241       H  0.26469390  0.35213086  0.35019985     0.11010
H2242       H  0.19903847  0.32606382  0.30938369     0.11010
C2243       C  0.29182689  0.22912200  0.35426363    -0.15130
C2244       C  0.29130981  0.25209424  0.36725144     0.07020
C2245       C  0.31249187  0.26787213  0.36721701    -0.15130
C2246       C  0.33279529  0.26226350  0.35143466    -0.15130
C2247       C  0.33178258  0.24087327  0.33578903     0.07020
C2248       C  0.31206427  0.22343814  0.33867503    -0.15130
H2249       H  0.27546539  0.21683574  0.35421438     0.11010
H2250       H  0.31209557  0.28581950  0.37702061     0.11010
H2251       H  0.34804242  0.27577826  0.34976402     0.11010
H2252       H  0.31120438  0.20647670  0.32728905     0.11010
C2253       C  0.16844172  0.35182646  0.44370061    -0.15130
C2254       C  0.18485658  0.34865281  0.42334564     0.07020
C2255       C  0.19393780  0.37003538  0.41036642    -0.15130
C2256       C  0.18768050  0.39427955  0.41836873    -0.15130
C2257       C  0.17235770  0.39752475  0.43957389     0.07020
C2258       C  0.16230642  0.37609631  0.45182496    -0.15130
H2259       H  0.16122598  0.33565262  0.45391822     0.11010
H2260       H  0.20641724  0.36800449  0.39430185     0.11010
H2261       H  0.19532446  0.41040190  0.40838743     0.11010
H2262       H  0.14996956  0.37805032  0.46799851     0.11010
C2263       C  0.06157994  0.47248418  0.36056007    -0.15130
C2264       C  0.05160902  0.44790662  0.36169049     0.07020
C2265       C  0.06496516  0.42947735  0.37535582    -0.15130
C2266       C  0.08669656  0.43593338  0.38911410    -0.15130
C2267       C  0.09510841  0.46107702  0.38996091     0.07020
C2268       C  0.08288267  0.47909702  0.37485167    -0.15130
H2269       H  0.05109358  0.48732014  0.35116403     0.11010
H2270       H  0.05711054  0.41071801  0.37752776     0.11010
H2271       H  0.09523579  0.42188942  0.40128127     0.11010
H2272       H  0.08850306  0.49874114  0.37579553     0.11010
C2273       C  0.86766511  0.41020113  0.29460609    -0.15130
C2274       C  0.84744595  0.42176145  0.30746353     0.07020
C2275       C  0.85259128  0.43807851  0.32754565    -0.15130
C2276       C  0.87763732  0.44394686  0.33361845    -0.15130
C2277       C  0.89784016  0.43297477  0.32024319     0.07020
C2278       C  0.89270512  0.41548502  0.30118032    -0.15130
H2279       H  0.86404559  0.39745389  0.27905627     0.11010
H2280       H  0.83733237  0.44724099  0.33759746     0.11010
H2281       H  0.88129888  0.45758789  0.34839457     0.11010
H2282       H  0.90796093  0.40702300  0.29052581     0.11010
C2283       C  0.88918504  0.49424284  0.40869717    -0.15130
C2284       C  0.91556363  0.49619927  0.41095325     0.07020
C2285       C  0.92619326  0.50328990  0.43413193    -0.15130
C2286       C  0.91118586  0.50685802  0.45498592    -0.15130
C2287       C  0.88509956  0.50413855  0.45317964     0.07020
C2288       C  0.87383934  0.49860208  0.42987093    -0.15130
H2289       H  0.88062691  0.48890081  0.39094384     0.11010
H2290       H  0.94637520  0.50557165  0.43646533     0.11010
H2291       H  0.92004152  0.51207895  0.47266217     0.11010
H2292       H  0.85352310  0.49711604  0.42826692     0.11010
C2293       C  0.82133319  0.63179128  0.57828030    -0.15130
C2294       C  0.80277322  0.64492668  0.56458931     0.07020
C2295       C  0.78860430  0.63181925  0.54645177    -0.15130
C2296       C  0.79287858  0.60629172  0.54190051    -0.15130
C2297       C  0.81122484  0.59298026  0.55557799     0.07020
C2298       C  0.82544959  0.60590255  0.57388476    -0.15130
H2299       H  0.83212062  0.64134824  0.59275574     0.11010
H2300       H  0.77397824  0.64134904  0.53580864     0.11010
H2301       H  0.78186901  0.59692707  0.52745239     0.11010
H2302       H  0.84013103  0.59617214  0.58425141     0.11010
C2303       C  0.73046873  0.63754950  0.65609159    -0.15130
C2304       C  0.75194638  0.65286560  0.65572234     0.07020
C2305       C  0.76853949  0.65283646  0.67630800    -0.15130
C2306       C  0.76231197  0.63992944  0.69824205    -0.15130
C2307       C  0.73930102  0.62701793  0.69984818     0.07020
C2308       C  0.72415749  0.62456846  0.67815274    -0.15130
H2309       H  0.71739864  0.63764818  0.64039016     0.11010
H2310       H  0.78523700  0.66464534  0.67618647     0.11010
H2311       H  0.77451490  0.64174074  0.71452895     0.11010
H2312       H  0.70637160  0.61452401  0.67888739     0.11010
C2313       C  0.69705521  0.76341866  0.64359982    -0.15130
C2314       C  0.69818261  0.74186540  0.62832374     0.07020
C2315       C  0.67607917  0.72764488  0.62420102    -0.15130
C2316       C  0.65408190  0.73308918  0.63770942    -0.15130
C2317       C  0.65420351  0.75273840  0.65529918     0.07020
C2318       C  0.67523717  0.76869722  0.65711939    -0.15130
H2319       H  0.71364091  0.77492864  0.64683669     0.11010
H2320       H  0.67639833  0.71103152  0.61230115     0.11010
H2321       H  0.63799612  0.72055501  0.63626838     0.11010
H2322       H  0.67550899  0.78401310  0.67065613     0.11010
C2323       C  0.15339109  0.36612167  0.22321323    -0.15130
C2324       C  0.14722250  0.34804471  0.20494841     0.07020
C2325       C  0.16018431  0.34813223  0.18181659    -0.15130
C2326       C  0.18095161  0.36402389  0.17815990    -0.15130
C2327       C  0.18931918  0.37957963  0.19781906     0.07020
C2328       C  0.17449088  0.38166285  0.21974386    -0.15130
H2329       H  0.14385952  0.36615156  0.24128854     0.11010
H2330       H  0.15567026  0.33428731  0.16748074     0.11010
H2331       H  0.19244555  0.36155052  0.16143481     0.11010
H2332       H  0.18104127  0.39299749  0.23544003     0.11010
C2333       C  0.12662842  0.26269752  0.33052071    -0.15130
C2334       C  0.14092896  0.28166562  0.34225791     0.07020
C2335       C  0.14009007  0.30626947  0.33235727    -0.15130
C2336       C  0.12691716  0.31129119  0.30990821    -0.15130
C2337       C  0.11384723  0.29194224  0.29732854     0.07020
C2338       C  0.11298374  0.26786292  0.30843413    -0.15130
H2339       H  0.12765221  0.24342705  0.33730407     0.11010
H2340       H  0.15172078  0.32097545  0.34051412     0.11010
H2341       H  0.12883295  0.32968571  0.30117480     0.11010
H2342       H  0.10400906  0.25237032  0.29855650     0.11010
C2343       C  0.03955001  0.29714379  0.13663006    -0.15130
C2344       C  0.06134676  0.30705586  0.14771466     0.07020
C2345       C  0.07850755  0.32063099  0.13266519    -0.15130
C2346       C  0.07393780  0.32384658  0.10670100    -0.15130
C2347       C  0.05212673  0.31355163  0.09560434     0.07020
C2348       C  0.03494360  0.30041564  0.11103582    -0.15130
H2349       H  0.02630357  0.28622338  0.14775029     0.11010
H2350       H  0.09585087  0.32779723  0.14075765     0.11010
H2351       H  0.08728141  0.33442520  0.09540329     0.11010
H2352       H  0.01779422  0.29243420  0.10330712     0.11010
C2353       C  0.97107957  0.23579350  0.00604015    -0.15130
C2354       C  0.98869674  0.21619033  0.00899604     0.07020
C2355       C  0.01455542  0.22233719  0.00948523    -0.15130
C2356       C  0.02246640  0.24758248  0.00897137    -0.15130
C2357       C  0.00469308  0.26725376  0.00807575     0.07020
C2358       C  0.97897799  0.26102059  0.00564292    -0.15130
H2359       H  0.95105098  0.23176570  0.00556722     0.11010
H2360       H  0.02866381  0.20769995  0.01166584     0.11010
H2361       H  0.04238930  0.25169623  0.01090416     0.11010
H2362       H  0.96477543  0.27570617  0.00481235     0.11010
C2363       C  0.98930252  0.21966849  0.23559885    -0.15130
C2364       C  0.96916382  0.23681917  0.23415464     0.07020
C2365       C  0.97447058  0.26287607  0.23501223    -0.15130
C2366       C  0.99941082  0.27156704  0.23505145    -0.15130
C2367       C  0.01955304  0.25437929  0.23417338     0.07020
C2368       C  0.01423020  0.22835543  0.23557883    -0.15130
H2369       H  0.98588506  0.19951517  0.23503860     0.11010
H2370       H  0.95936198  0.27662151  0.23409158     0.11010
H2371       H  0.00285336  0.29169888  0.23403361     0.11010
H2372       H  0.02934352  0.21459051  0.23512501     0.11010
C2373       C  0.86747537  0.31224363  0.22736118    -0.15130
C2374       C  0.86358532  0.29008860  0.24153735     0.07020
C2375       C  0.84936224  0.29118948  0.26378370    -0.15130
C2376       C  0.83642882  0.31313367  0.26987098    -0.15130
C2377       C  0.83782353  0.33421485  0.25397004     0.07020
C2378       C  0.85455843  0.33434871  0.23360147    -0.15130
H2379       H  0.87863595  0.31191173  0.21025143     0.11010
H2380       H  0.84648180  0.27453855  0.27530492     0.11010
H2381       H  0.82361326  0.31296444  0.28580076     0.11010
H2382       H  0.85566492  0.35054887  0.22117269     0.11010
C2383       C  0.91558596  0.16446463  0.13472411    -0.15130
C2384       C  0.92726444  0.18532411  0.14629811     0.07020
C2385       C  0.94261758  0.20118647  0.13158522    -0.15130
C2386       C  0.94657750  0.19624484  0.10613942    -0.15130
C2387       C  0.93514138  0.17544099  0.09450922     0.07020
C2388       C  0.91945256  0.15958917  0.10891040    -0.15130
H2389       H  0.90325021  0.15223445  0.14549367     0.11010
H2390       H  0.95169200  0.21756768  0.13978784     0.11010
H2391       H  0.95908511  0.20849031  0.09555702     0.11010
H2392       H  0.91100035  0.14301061  0.10044856     0.11010
C2393       C  0.08584465  0.09592739  0.01198628    -0.15130
C2394       C  0.08671635  0.08446452  0.98823520     0.07020
C2395       C  0.06704399  0.08823697  0.97101464    -0.15130
C2396       C  0.04541577  0.10111475  0.97834416    -0.15130
C2397       C  0.04323156  0.11024790  0.00304364     0.07020
C2398       C  0.06410525  0.10889742  0.01938604    -0.15130
H2399       H  0.10079738  0.09276840  0.02555509     0.11010
H2400       H  0.06754984  0.07934092  0.95261453     0.11010
H2401       H  0.02970189  0.10225384  0.96533040     0.11010
H2402       H  0.06280078  0.11583875  0.03855446     0.11010
C2403       C  0.29409448  0.26333707  0.85289508    -0.15130
C2404       C  0.29231877  0.24029932  0.86575358     0.07020
C2405       C  0.31378152  0.22470317  0.86767431    -0.15130
C2406       C  0.33561951  0.23053461  0.85408544    -0.15130
C2407       C  0.33596846  0.25197030  0.83870233     0.07020
C2408       C  0.31577087  0.26904726  0.83933656    -0.15130
H2409       H  0.27799216  0.27586797  0.85145757     0.11010
H2410       H  0.31291024  0.20687482  0.87764629     0.11010
H2411       H  0.35105005  0.21712174  0.85355844     0.18690
H2412       H  0.31587691  0.28569519  0.82747058     0.11010
C2413       C  0.19768343  0.13242252  0.94667676    -0.15130
C2414       C  0.18504367  0.14528863  0.92728752     0.07020
C2415       C  0.16794963  0.13184967  0.91207018    -0.15130
C2416       C  0.16384168  0.10589145  0.91614253    -0.15130
C2417       C  0.17657418  0.09315379  0.93565717     0.07020
C2418       C  0.19337727  0.10681818  0.95091927    -0.15130
H2419       H  0.21121484  0.14218877  0.95847851     0.11010
H2420       H  0.15842621  0.14120846  0.89660533     0.11010
H2421       H  0.15039311  0.09592407  0.90443194     0.11010
H2422       H  0.20327819  0.09764761  0.96626819     0.11010
C2423       C  0.10210620  0.99828799  0.08008677    -0.15130
C2424       C  0.08014614  0.98373061  0.07829443     0.07020
C2425       C  0.07404883  0.97183793  0.05548174    -0.15130
C2426       C  0.08832921  0.97632605  0.03403916    -0.15130
C2427       C  0.10868676  0.99320553  0.03497275     0.07020
C2428       C  0.11628784  0.00317847  0.05838189    -0.15130
H2429       H  0.10712035  0.00739617  0.09766675     0.11010
H2430       H  0.05738020  0.96007699  0.05393978     0.11010
H2431       H  0.08215698  0.96813143  0.01636930     0.11010
H2432       H  0.13208016  0.01609424  0.05959315     0.11010
C2433       C  0.97310355  0.04194449  0.10447308    -0.15130
C2434       C  0.99587698  0.03996911  0.11776795     0.07020
C2435       C  0.01105231  0.06160649  0.12082156    -0.15130
C2436       C  0.00545491  0.08370684  0.10755636    -0.15130
C2437       C  0.98466460  0.08416636  0.09135565     0.07020
C2438       C  0.96764900  0.06389591  0.09117898    -0.15130
H2439       H  0.96082041  0.02575504  0.10217759     0.11010
H2440       H  0.02857194  0.06069105  0.13128935     0.11010
H2441       H  0.01877779  0.09921692  0.10775549     0.11010
H2442       H  0.95144338  0.06410509  0.07873545     0.11010
C2443       C  0.23266495  0.87296326  0.31287451    -0.15130
C2444       C  0.24671489  0.86830917  0.29077070     0.07020
C2445       C  0.26789221  0.85251760  0.29197024    -0.15130
C2446       C  0.27259638  0.83869293  0.31371190    -0.15130
C2447       C  0.25649793  0.84080881  0.33460576     0.07020
C2448       C  0.23756812  0.85918384  0.33481641    -0.15130
H2449       H  0.21640563  0.88535154  0.31253377     0.11010
H2450       H  0.27930279  0.84888258  0.27540654     0.11010
H2451       H  0.28744330  0.82463688  0.31340365     0.11010
H2452       H  0.22502903  0.86098504  0.35085135     0.11010
C2453       C  0.13841094  0.92594476  0.16024630    -0.15130
C2454       C  0.14514871  0.92196358  0.18552897     0.07020
C2455       C  0.12584122  0.92044196  0.20380574    -0.15130
C2456       C  0.10055416  0.92399892  0.19721954    -0.15130
C2457       C  0.09399184  0.92908839  0.17222602     0.07020
C2458       C  0.11302025  0.92982975  0.15371857    -0.15130
H2459       H  0.15278453  0.92701943  0.14576684     0.11010
H2460       H  0.13032523  0.91691972  0.22341792     0.11010
H2461       H  0.08625944  0.92402712  0.21183030     0.11010
H2462       H  0.10830051  0.93448478  0.13438979     0.11010
C2463       C  0.10999453  0.21943095  0.81438413    -0.15130
C2464       C  0.11233244  0.19822475  0.79857675     0.07020
C2465       C  0.12836361  0.17848133  0.80588046    -0.15130
C2466       C  0.14435448  0.18145764  0.82665476    -0.15130
C2467       C  0.14406756  0.20395042  0.84071345     0.07020
C2468       C  0.12560142  0.22216756  0.83551858    -0.15130
H2469       H  0.09827603  0.23519988  0.80869099     0.11010
H2470       H  0.13102960  0.16231663  0.79363294     0.11010
H2471       H  0.15841535  0.16712261  0.83045206     0.11010
H2472       H  0.12522821  0.23975450  0.84594209     0.11010
C2473       C  0.07197566  0.20470638  0.62381235    -0.15130
C2474       C  0.06453979  0.19077964  0.64527182     0.07020
C2475       C  0.05184704  0.16785104  0.64207695    -0.15130
C2476       C  0.04570517  0.15958935  0.61789648    -0.15130
C2477       C  0.05240543  0.17399231  0.59659214     0.07020
C2478       C  0.06606685  0.19629433  0.59965111    -0.15130
H2479       H  0.08216270  0.22233850  0.62565041     0.11010
H2480       H  0.04624030  0.15661558  0.65819804     0.11010
H2481       H  0.03524386  0.14213118  0.61582651     0.11010
H2482       H  0.07122741  0.20769911  0.58349260     0.11010
C2483       C  0.51816663  0.63046300  0.92843684    -0.15130
C2484       C  0.54014726  0.62865974  0.94322838     0.07020
C2485       C  0.56013544  0.61359856  0.93464493    -0.15130
C2486       C  0.55686975  0.59800530  0.91358642    -0.15130
C2487       C  0.53381378  0.59775067  0.90047780     0.07020
C2488       C  0.51511266  0.61528240  0.90700971    -0.15130
H2489       H  0.50221541  0.64137655  0.93512988     0.11010
H2490       H  0.57690342  0.61127957  0.94610500     0.11010
H2491       H  0.57149543  0.58449869  0.90889948     0.11010
H2492       H  0.49706009  0.61512269  0.89743202     0.11010
C2493       C  0.48261709  0.58597894  0.10104035    -0.15130
C2494       C  0.50429460  0.58419121  0.08582814     0.07020
C2495       C  0.52040265  0.56332744  0.08847337    -0.15130
C2496       C  0.51310949  0.54298519  0.10328909    -0.15130
C2497       C  0.48985814  0.54346345  0.11581215     0.07020
C2498       C  0.47540871  0.56557714  0.11606946    -0.15130
H2499       H  0.47006876  0.60205724  0.09957231     0.11010
H2500       H  0.53751742  0.56173097  0.07740408     0.11010
H2501       H  0.52442500  0.52592735  0.10303980     0.11010
H2502       H  0.45728556  0.56602151  0.12552571     0.11010
C2503       C  0.53976272  0.69665305  0.13710901    -0.15130
C2504       C  0.56251870  0.68741613  0.14673528     0.07020
C2505       C  0.57917470  0.67423476  0.13091055    -0.15130
C2506       C  0.57283168  0.66994315  0.10564556    -0.15130
C2507       C  0.54982896  0.67891129  0.09613780     0.07020
C2508       C  0.53331525  0.69216461  0.11205854    -0.15130
H2509       H  0.52722891  0.70772131  0.14888647     0.11010
H2510       H  0.59724639  0.66780409  0.13798547     0.11010
H2511       H  0.58548566  0.65915170  0.09375261     0.11010
H2512       H  0.51534229  0.69895232  0.10505647     0.11010
C2513       C  0.23536142  0.00384072  0.26926718    -0.15130
C2514       C  0.23249433  0.02392429  0.25221023     0.07020
C2515       C  0.23121187  0.01829624  0.22623503    -0.15130
C2516       C  0.23101374  0.99322235  0.21771156    -0.15130
C2517       C  0.23200386  0.97311436  0.23494283     0.07020
C2518       C  0.23506991  0.97876070  0.26074563    -0.15130
H2519       H  0.23636551  0.00741661  0.28934431     0.11010
H2520       H  0.22899573  0.03326472  0.21249517     0.11010
H2521       H  0.22857606  0.98960612  0.19776228     0.11010
H2522       H  0.23602348  0.96372794  0.27455918     0.11010
C2523       C  0.33011254  0.14932703  0.30465872    -0.15130
C2524       C  0.33994512  0.15045094  0.28004877     0.07020
C2525       C  0.32839829  0.13578672  0.26121787    -0.15130
C2526       C  0.30681998  0.12125402  0.26659669    -0.15130
C2527       C  0.29591515  0.12148752  0.29079041     0.07020
C2528       C  0.30816666  0.13526462  0.30989256    -0.15130
H2529       H  0.33802928  0.16117701  0.31930781     0.11010
H2530       H  0.33502738  0.13697205  0.24192990     0.11010
H2531       H  0.29716633  0.11188545  0.25121472     0.11010
H2532       H  0.29956741  0.13684989  0.32835952     0.11010
C2533       C  0.18023168  0.16413744  0.34866898    -0.15130
C2534       C  0.20335628  0.15108542  0.34822533     0.07020
C2535       C  0.22201582  0.15754221  0.36579459    -0.15130
C2536       C  0.21891801  0.17893249  0.38106276    -0.15130
C2537       C  0.19695915  0.19381525  0.37927850     0.07020
C2538       C  0.17693651  0.18517736  0.36432896    -0.15130
H2539       H  0.16561130  0.15952495  0.33516137     0.11010
H2540       H  0.24011053  0.14802147  0.36554511     0.11010
H2541       H  0.23488192  0.18560884  0.39194097     0.11010
H2542       H  0.16015462  0.19664997  0.36205185     0.11010
C2543       C  0.14853332  0.17540703  0.27120666    -0.15130
C2544       C  0.14978615  0.15516054  0.25423698     0.07020
C2545       C  0.13541703  0.15561438  0.23213656    -0.15130
C2546       C  0.12237931  0.17758796  0.22558943    -0.15130
C2547       C  0.12387916  0.19910610  0.24111408     0.07020
C2548       C  0.13558415  0.19727325  0.26472979    -0.15130
H2549       H  0.15964594  0.17522471  0.28835543     0.11010
H2550       H  0.13649972  0.14018286  0.21877103     0.11010
H2551       H  0.11326172  0.17850409  0.20733793     0.11010
H2552       H  0.13660995  0.21343007  0.27721919     0.11010
C2553       C  0.00400978  0.97849218  0.26448551    -0.15130
C2554       C  0.01120296  0.00333521  0.27066212     0.07020
C2555       C  0.01806019  0.01982100  0.25113657    -0.15130
C2556       C  0.01898244  0.01137281  0.22618841    -0.15130
C2557       C  0.01288736  0.98621355  0.21998797     0.07020
C2558       C  0.00469711  0.97004725  0.23936729    -0.15130
H2559       H  0.99876206  0.96532692  0.27920913     0.11010
H2560       H  0.02415972  0.03889462  0.25530053     0.11010
H2561       H  0.02551721  0.02439863  0.21185980     0.11010
H2562       H  0.99987397  0.95060744  0.23528816     0.11010
C2563       C  0.10787239  0.07312607  0.32879569    -0.15130
C2564       C  0.09509413  0.05444267  0.31488991     0.07020
C2565       C  0.10853033  0.04078431  0.29658429    -0.15130
C2566       C  0.13393617  0.04564729  0.29205731    -0.15130
C2567       C  0.14688790  0.06419832  0.30581363     0.07020
C2568       C  0.13367460  0.07792022  0.32433787    -0.15130
H2569       H  0.09810138  0.08354477  0.34340925     0.11010
H2570       H  0.09934876  0.02608806  0.28573571     0.11010
H2571       H  0.14346971  0.03499260  0.27744070     0.11010
H2572       H  0.14307124  0.09276150  0.33477974     0.11010
C2573       C  0.01646601  0.11273583  0.40699164    -0.15130
C2574       C  0.03500996  0.09483719  0.40103087     0.07020
C2575       C  0.05796086  0.09514376  0.41431638    -0.15130
C2576       C  0.06124626  0.11120277  0.43502609    -0.15130
C2577       C  0.04136102  0.12667603  0.44310681     0.07020
C2578       C  0.01953567  0.12839975  0.42806530    -0.15130
H2579       H  0.99851584  0.11260671  0.39722352     0.11010
H2580       H  0.07250889  0.08144041  0.40999463     0.11010
H2581       H  0.07789391  0.10895583  0.44667355     0.11010
H2582       H  0.00365011  0.13964117  0.43436558     0.11010
C2583       C  0.09807788  0.49088067  0.58207355    -0.15130
C2584       C  0.07991662  0.51006390  0.57938252     0.07020
C2585       C  0.08049188  0.52577076  0.55811161    -0.15130
C2586       C  0.09655727  0.52008356  0.53824398    -0.15130
C2587       C  0.11225050  0.49885502  0.53965104     0.07020
C2588       C  0.11430848  0.48531188  0.56218239    -0.15130
H2589       H  0.09836500  0.47888653  0.59861618     0.11010
H2590       H  0.06716411  0.54113010  0.55591930     0.11010
H2591       H  0.09498157  0.53072286  0.52084941     0.11010
H2592       H  0.12629290  0.46877003  0.56335925     0.11010
C2593       C  0.90265695  0.51713351  0.61778526    -0.15130
C2594       C  0.89638574  0.53562053  0.59993891     0.07020
C2595       C  0.90963622  0.55863880  0.60008830    -0.15130
C2596       C  0.93058138  0.56200994  0.61583720    -0.15130
C2597       C  0.93899664  0.54215433  0.63117733     0.07020
C2598       C  0.92398353  0.52029158  0.63313466    -0.15130
H2599       H  0.89302437  0.49909382  0.61773371     0.11010
H2600       H  0.90523537  0.57309989  0.58631700     0.11010
H2601       H  0.94218507  0.57867361  0.61334361     0.11010
H2602       H  0.93051183  0.50440683  0.64423778     0.11010
C2603       C  0.12185592  0.57582594  0.70321288    -0.15130
C2604       C  0.14341998  0.56805485  0.68962635     0.07020
C2605       C  0.14030472  0.55476380  0.66705075    -0.15130
C2606       C  0.11615758  0.54843824  0.65877931    -0.15130
C2607       C  0.09469251  0.55541544  0.67284865     0.07020
C2608       C  0.09768512  0.56963405  0.69483292    -0.15130
H2609       H  0.12362877  0.58647143  0.72055783     0.11010
H2610       H  0.15648620  0.54887304  0.65604306     0.11010
H2611       H  0.11428443  0.53758392  0.64156393     0.11010
H2612       H  0.08146721  0.57509163  0.70601512     0.11010
C2613       C  0.12871321  0.42526887  0.02214551    -0.15130
C2614       C  0.12620414  0.44065175  0.04366044     0.07020
C2615       C  0.10996072  0.43282383  0.06302155    -0.15130
C2616       C  0.09411067  0.41195445  0.05947462    -0.15130
C2617       C  0.09468168  0.39825375  0.03676369     0.07020
C2618       C  0.11323868  0.40404086  0.01882656    -0.15130
H2619       H  0.14051900  0.43136183  0.00660916     0.11010
H2620       H  0.10706580  0.44472898  0.07938799     0.11010
H2621       H  0.07993893  0.40778901  0.07359212     0.11010
H2622       H  0.11382967  0.39397819  0.00105476     0.11010
C2623       C  0.21769473  0.81541321  0.10895082    -0.15130
C2624       C  0.19636512  0.79995813  0.11264361     0.07020
C2625       C  0.17809704  0.80762867  0.13018969    -0.15130
C2626       C  0.18267162  0.82830347  0.14602241    -0.15130
C2627       C  0.20527075  0.84210986  0.14411812     0.07020
C2628       C  0.22200199  0.83651469  0.12440670    -0.15130
H2629       H  0.23248764  0.80942336  0.09617388     0.11010
H2630       H  0.16198277  0.79564315  0.13407673     0.11010
H2631       H  0.16954184  0.83218847  0.16120478     0.11010
H2632       H  0.23970204  0.84661223  0.12279142     0.11010
C2633       C  0.19569603  0.59898698  0.06624516    -0.15130
C2634       C  0.17255393  0.59497368  0.05440179     0.07020
C2635       C  0.15656866  0.61569503  0.04954463    -0.15130
C2636       C  0.16395902  0.64024337  0.05584882    -0.15130
C2637       C  0.18761304  0.64444359  0.06681177     0.07020
C2638       C  0.20322653  0.62347896  0.07225659    -0.15130
H2639       H  0.20837779  0.58335284  0.06986618     0.11010
H2640       H  0.13849611  0.61288681  0.04041143     0.11010
H2641       H  0.15144188  0.65587767  0.05174334     0.11010
H2642       H  0.22155339  0.62595785  0.08093739     0.11010
C2643       C  0.58548072  0.09950762  0.48181269    -0.15130
C2644       C  0.58353455  0.08511639  0.50400990     0.07020
C2645       C  0.56368585  0.08979586  0.52089447    -0.15130
C2646       C  0.54431212  0.10609512  0.51411874    -0.15130
C2647       C  0.54477500  0.11802781  0.49058944     0.07020
C2648       C  0.56605237  0.11596380  0.47509840    -0.15130
H2649       H  0.60082021  0.09645739  0.46865686     0.11010
H2650       H  0.56206240  0.07936822  0.53839638     0.11010
H2651       H  0.52778779  0.10745258  0.52610146     0.11010
H2652       H  0.56634385  0.12480058  0.45666875     0.11010
C2653       C  0.62823692  0.92730012  0.52782555    -0.15130
C2654       C  0.62509153  0.94403140  0.54818742     0.07020
C2655       C  0.60715620  0.93827712  0.56675404    -0.15130
C2656       C  0.59024340  0.91833700  0.56311727    -0.15130
C2657       C  0.59145401  0.90349119  0.54118524     0.07020
C2658       C  0.61165499  0.90696625  0.52446240    -0.15130
H2659       H  0.64144822  0.93180390  0.51289390     0.11010
H2660       H  0.60387103  0.95126404  0.58221019     0.11010
H2661       H  0.57497627  0.91579748  0.57641658     0.11010
H2662       H  0.61291330  0.89583126  0.50737842     0.11010
C2663       C  0.67450138  0.14263992  0.54485476    -0.15130
C2664       C  0.69008221  0.14563279  0.56586372     0.07020
C2665       C  0.69768472  0.12428206  0.57974738    -0.15130
C2666       C  0.69032001  0.10014452  0.57232277    -0.15130
C2667       C  0.67549362  0.09701882  0.55072910     0.07020
C2668       C  0.66738124  0.11850612  0.53724489    -0.15130
H2669       H  0.66850453  0.15883793  0.53390974     0.11010
H2670       H  0.70954884  0.12627033  0.59626557     0.11010
H2671       H  0.69659853  0.08398081  0.58314991     0.11010
H2672       H  0.65563211  0.11669575  0.52063561     0.11010
C2673       C  0.24808047  0.50584013  0.96898062    -0.15130
C2674       C  0.26883469  0.50771302  0.98521426     0.07020
C2675       C  0.26471659  0.50688989  0.01146390    -0.15130
C2676       C  0.24019061  0.50604688  0.02132940    -0.15130
C2677       C  0.21938179  0.50663362  0.00507858     0.07020
C2678       C  0.22353393  0.50564236  0.97884669    -0.15130
H2679       H  0.25072394  0.50673945  0.94874746     0.11010
H2680       H  0.28048980  0.50840579  0.02436746     0.11010
H2681       H  0.23749437  0.50720280  0.04154401     0.11010
H2682       H  0.20769818  0.50629784  0.96594626     0.11010
C2683       C  0.42844892  0.58548211  0.96995248    -0.15130
C2684       C  0.40770345  0.58235825  0.98608195     0.07020
C2685       C  0.40545804  0.59766055  0.00764839    -0.15130
C2686       C  0.42519674  0.61365419  0.01452173    -0.15130
C2687       C  0.44711107  0.61431723  0.99983846     0.07020
C2688       C  0.44813908  0.60128952  0.97690956    -0.15130
H2689       H  0.43036007  0.57433043  0.95293492     0.11010
H2690       H  0.38943568  0.59582224  0.02020135     0.11010
H2691       H  0.42442304  0.62341303  0.03246306     0.11010
H2692       H  0.46512174  0.60166307  0.96551045     0.11010
C2693       C  0.40796053  0.51353402  0.87609409    -0.15130
C2694       C  0.39667396  0.53185870  0.89157803     0.07020
C2695       C  0.40729120  0.55615688  0.89235606    -0.15130
C2696       C  0.42994042  0.56137803  0.87959136    -0.15130
C2697       C  0.44208783  0.54257542  0.86534497     0.07020
C2698       C  0.43029599  0.51893496  0.86287233    -0.15130
H2699       H  0.40067214  0.49442536  0.87590833     0.11010
H2700       H  0.39953337  0.57029232  0.90493618     0.11010
H2701       H  0.43917209  0.57935422  0.88273363     0.11010
H2702       H  0.43981348  0.50377339  0.85297801     0.11010
C2703       C  0.38609637  0.47324787  0.03897481    -0.15130
C2704       C  0.37172598  0.49542081  0.04003363     0.07020
C2705       C  0.37100368  0.50975080  0.06213976    -0.15130
C2706       C  0.38756778  0.50402194  0.08168464    -0.15130
C2707       C  0.40473449  0.48393195  0.07902974     0.07020
C2708       C  0.40257033  0.46746254  0.05846821    -0.15130
H2709       H  0.38666403  0.46203917  0.02187930     0.11010
H2710       H  0.36007557  0.52702888  0.06302293     0.11010
H2711       H  0.38846777  0.51661317  0.09775078     0.11010
H2712       H  0.41506668  0.45140111  0.05640129     0.11010
C2713       C  0.35637884  0.42712030  0.96848807    -0.15130
C2714       C  0.35886617  0.44165523  0.94636286     0.07020
C2715       C  0.37403979  0.43241168  0.92678418    -0.15130
C2716       C  0.38931139  0.41118294  0.93073307    -0.15130
C2717       C  0.38919128  0.39857542  0.95409861     0.07020
C2718       C  0.37132797  0.40558837  0.97227794    -0.15130
H2719       H  0.34533053  0.43426124  0.98413796     0.11010
H2720       H  0.37687363  0.44358425  0.90989914     0.11010
H2721       H  0.40309346  0.40616840  0.91648736     0.11010
H2722       H  0.37115687  0.39644537  0.99055122     0.11010
C2723       C  0.26956748  0.73714308  0.99055593    -0.15130
C2724       C  0.25316354  0.73472860  0.96996849     0.07020
C2725       C  0.22694127  0.73431692  0.97451008    -0.15130
C2726       C  0.21738671  0.73457015  0.99919460    -0.15130
C2727       C  0.23392110  0.73460220  0.01981395     0.07020
C2728       C  0.26004574  0.73674419  0.01524668    -0.15130
H2729       H  0.28980041  0.73721903  0.98765564     0.11010
H2730       H  0.21386257  0.73239136  0.95893417     0.11010
H2731       H  0.19725753  0.73258564  0.00214166     0.11010
H2732       H  0.27321781  0.73665283  0.03086419     0.11010
C2733       C  0.32207233  0.64300322  0.94036421    -0.15130
C2734       C  0.30250755  0.64649387  0.92303416     0.07020
C2735       C  0.29093590  0.62513735  0.91206635    -0.15130
C2736       C  0.29803994  0.60077787  0.91907850    -0.15130
C2737       C  0.31670750  0.59730768  0.93733559     0.07020
C2738       C  0.32903905  0.61860526  0.94753879    -0.15130
H2739       H  0.33141923  0.65904978  0.94890035     0.11010
H2740       H  0.27600381  0.62722953  0.89827796     0.11010
H2741       H  0.28838141  0.58474635  0.91086178     0.11010
H2742       H  0.34385501  0.61641000  0.96143835     0.11010
C2743       C  0.27261310  0.66166536  0.80743396    -0.15130
C2744       C  0.25809412  0.66168518  0.82955448     0.07020
C2745       C  0.23872761  0.64377932  0.83255793    -0.15130
C2746       C  0.23194199  0.62826913  0.81242980    -0.15130
C2747       C  0.24444406  0.63079946  0.78934105     0.07020
C2748       C  0.26567951  0.64640028  0.78735313    -0.15130
H2749       H  0.28801661  0.67486391  0.80484219     0.11010
H2750       H  0.22757491  0.64313815  0.84966340     0.11010
H2751       H  0.21542392  0.61633063  0.81407891     0.11010
H2752       H  0.27555721  0.64833343  0.76955000     0.11010
C2753       C  0.80822332  0.12503784  0.17945030    -0.15130
C2754       C  0.79878112  0.11170850  0.20024131     0.07020
C2755       C  0.81320215  0.11066921  0.22248560    -0.15130
C2756       C  0.83509622  0.12524154  0.22493032    -0.15130
C2757       C  0.84242575  0.14139091  0.20532810     0.07020
C2758       C  0.82973921  0.14010697  0.18209907    -0.15130
H2759       H  0.79708265  0.12668446  0.16239882     0.11010
H2760       H  0.80588346  0.10102877  0.23896287     0.11010
H2761       H  0.84433979  0.12629291  0.24311943     0.11010
H2762       H  0.83499473  0.15266006  0.16683920     0.11010
C2763       C  0.64181846  0.04664090  0.17256918    -0.15130
C2764       C  0.64441114  0.07042304  0.18358151     0.07020
C2765       C  0.62298930  0.08564244  0.18743531    -0.15130
C2766       C  0.59904715  0.07671371  0.18129778    -0.15130
C2767       C  0.59626462  0.05236600  0.17144118     0.07020
C2768       C  0.61791165  0.03761747  0.16664068    -0.15130
H2769       H  0.65808685  0.03457622  0.16971703     0.11010
H2770       H  0.62474025  0.10419290  0.19587663     0.11010
H2771       H  0.58276579  0.08858137  0.18476702     0.11010
H2772       H  0.61640458  0.01883838  0.15869667     0.11010
C2773       C  0.23837796  0.98669039  0.52155918    -0.15130
C2774       C  0.21853251  0.98478472  0.50414373     0.07020
C2775       C  0.22417993  0.98618391  0.47821895    -0.15130
C2776       C  0.24922704  0.98721060  0.46988412    -0.15130
C2777       C  0.26916552  0.98679682  0.48729525     0.07020
C2778       C  0.26342360  0.98765887  0.51322601    -0.15130
H2779       H  0.23469680  0.98574398  0.54162549     0.11010
H2780       H  0.20930247  0.98496232  0.46427743     0.11010
H2781       H  0.25297010  0.98658634  0.44981775     0.11010
H2782       H  0.27834706  0.98750137  0.52717229     0.11010
C2783       C  0.11752901  0.97537202  0.42698594    -0.15130
C2784       C  0.11456734  0.99045792  0.44866832     0.07020
C2785       C  0.10159062  0.01343488  0.44687191    -0.15130
C2786       C  0.08887597  0.01951316  0.42479642    -0.15130
C2787       C  0.08915260  0.00281315  0.40429137     0.07020
C2788       C  0.10475048  0.98153669  0.40479274    -0.15130
H2789       H  0.12768988  0.95764563  0.42784462     0.11010
H2790       H  0.09941615  0.02561230  0.46314432     0.11010
H2791       H  0.07680951  0.03602833  0.42457637     0.11010
H2792       H  0.10489438  0.96839329  0.38914189     0.11010
C2793       C  0.10937622  0.05814707  0.56136439    -0.15130
C2794       C  0.12361022  0.04615432  0.54245867     0.07020
C2795       C  0.12566281  0.05796330  0.51880471    -0.15130
C2796       C  0.11214656  0.08017674  0.51353788    -0.15130
C2797       C  0.09676374  0.09135660  0.53200240     0.07020
C2798       C  0.09632176  0.08069769  0.55627365    -0.15130
H2799       H  0.10653513  0.04889439  0.57936289     0.11010
H2800       H  0.13552914  0.04855629  0.50356812     0.11010
H2801       H  0.11209191  0.08748484  0.49445856     0.11010
H2802       H  0.08384582  0.08837481  0.57053735     0.11010
C2803       C  0.22005449  0.75880282  0.49950335    -0.15130
C2804       C  0.23765327  0.75874745  0.51930318     0.07020
C2805       C  0.26353380  0.75776844  0.51328425    -0.15130
C2806       C  0.27164406  0.75874718  0.48815466    -0.15130
C2807       C  0.25407078  0.76082697  0.46844455     0.07020
C2808       C  0.22816624  0.75988192  0.47437545    -0.15130
H2809       H  0.20001401  0.75960475  0.50343191     0.11010
H2810       H  0.27762598  0.75763665  0.52806711     0.11010
H2811       H  0.29170139  0.75938523  0.48428884     0.11010
H2812       H  0.21408557  0.76131726  0.45964924     0.11010
C2813       C  0.20147161  0.85792573  0.54582708    -0.15130
C2814       C  0.18726873  0.84423216  0.56350653     0.07020
C2815       C  0.16827013  0.85680529  0.57716460    -0.15130
C2816       C  0.16368220  0.88268833  0.57308947    -0.15130
C2817       C  0.17791269  0.89616622  0.55517386     0.07020
C2818       C  0.19678878  0.88343236  0.54164580    -0.15130
H2819       H  0.21642048  0.84887030  0.53521018     0.11010
H2820       H  0.15743412  0.84679751  0.59130908     0.11010
H2821       H  0.14861072  0.89195287  0.58332890     0.11010
H2822       H  0.20783838  0.89321787  0.52749540     0.11010
C2823       C  0.22365570  0.68122004  0.61210342    -0.15130
C2824       C  0.19967964  0.69253365  0.61312968     0.07020
C2825       C  0.18028880  0.67979601  0.62603609    -0.15130
C2826       C  0.18520879  0.65711722  0.63900088    -0.15130
C2827       C  0.20976398  0.64707047  0.63981637     0.07020
C2828       C  0.22870900  0.65889992  0.62550790    -0.15130
H2829       H  0.23921279  0.69114186  0.60328334     0.11010
H2830       H  0.16195705  0.68861357  0.62809518     0.11010
H2831       H  0.17050512  0.64900585  0.65066418     0.11010
H2832       H  0.24797229  0.65212103  0.62653761     0.11010
C2833       C  0.72881699  0.23569212  0.47493687    -0.15130
C2834       C  0.75483992  0.23424710  0.46965456     0.07020
C2835       C  0.77199210  0.23496271  0.48974869    -0.15130
C2836       C  0.76319812  0.23469958  0.51469138    -0.15130
C2837       C  0.73713128  0.23440136  0.51996506     0.07020
C2838       C  0.72003895  0.23611246  0.49987981    -0.15130
H2839       H  0.71520392  0.23500707  0.45971685     0.11010
H2840       H  0.79207489  0.23351502  0.48621806     0.11010
H2841       H  0.77676401  0.23324616  0.52990076     0.11010
H2842       H  0.69991017  0.23556553  0.50339586     0.11010
C2843       C  0.76835595  0.33516547  0.36464771    -0.15130
C2844       C  0.78645456  0.34121187  0.34636838     0.07020
C2845       C  0.80932941  0.32777001  0.34586338    -0.15130
C2846       C  0.81282252  0.30669267  0.36136762    -0.15130
C2847       C  0.79321179  0.29846268  0.37706768     0.07020
C2848       C  0.77163596  0.31373504  0.37978100    -0.15130
H2849       H  0.75047176  0.34506871  0.36511322     0.11010
H2850       H  0.82349815  0.33213654  0.33178690     0.11010
H2851       H  0.82926209  0.29487840  0.35841502     0.11010
H2852       H  0.75597857  0.30732324  0.39126287     0.11010
C2853       C  0.86288353  0.22614333  0.33040264    -0.15130
C2854       C  0.84686140  0.20794200  0.34114506     0.07020
C2855       C  0.84611983  0.18371549  0.33037415    -0.15130
C2856       C  0.85953763  0.17844057  0.30812337    -0.15130
C2857       C  0.87440854  0.19710819  0.29650843     0.07020
C2858       C  0.87675073  0.22068139  0.30846548    -0.15130
H2859       H  0.86308949  0.24520571  0.33780376     0.11010
H2860       H  0.83318992  0.16966947  0.33771174     0.11010
H2861       H  0.85648458  0.16053001  0.29873965     0.11010
H2862       H  0.88710767  0.23576860  0.29933248     0.11010
C2863       C  0.72922919  0.14307011  0.33334634    -0.15130
C2864       C  0.75185417  0.15689309  0.33221904     0.07020
C2865       C  0.76926126  0.15193755  0.31292519    -0.15130
C2866       C  0.76265417  0.13605737  0.29319111    -0.15130
C2867       C  0.73869709  0.12494921  0.29267304     0.07020
C2868       C  0.72263607  0.12708857  0.31350678    -0.15130
H2869       H  0.71567309  0.14634002  0.34828437     0.11010
H2870       H  0.78709289  0.16189692  0.31198843     0.11010
H2871       H  0.77514039  0.13456240  0.27706060     0.11010
H2872       H  0.70392574  0.11884823  0.31308857     0.11010
C2873       C  0.74959046  0.00392516  0.47064713    -0.15130
C2874       C  0.77012715  0.00655679  0.48707763     0.07020
C2875       C  0.76551950  0.00668644  0.51328375    -0.15130
C2876       C  0.74080724  0.00611580  0.52280230    -0.15130
C2877       C  0.72020049  0.00598732  0.50625693     0.07020
C2878       C  0.72485461  0.00395695  0.48014287    -0.15130
H2879       H  0.75252427  0.00408209  0.45043582     0.11010
H2880       H  0.78105290  0.00879305  0.52639106     0.11010
H2881       H  0.73781312  0.00806893  0.54291281     0.11010
H2882       H  0.70924856  0.00402470  0.46695303     0.11010
C2883       C  0.90548451  0.10003008  0.50706097    -0.15130
C2884       C  0.90759534  0.08454186  0.48562501     0.07020
C2885       C  0.92821145  0.08754393  0.46930648    -0.15130
C2886       C  0.94810386  0.10311393  0.47617479    -0.15130
C2887       C  0.94739077  0.11596767  0.49921168     0.07020
C2888       C  0.92544140  0.11577376  0.51385879    -0.15130
H2889       H  0.88953297  0.09831448  0.51972037     0.11010
H2890       H  0.92998527  0.07627584  0.45234915     0.11010
H2891       H  0.96508744  0.10317806  0.46476852     0.11010
H2892       H  0.92487773  0.12545971  0.53184648     0.11010
C2893       C  0.90906331  0.01188455  0.37751125    -0.15130
C2894       C  0.89812172  0.03082278  0.39252777     0.07020
C2895       C  0.90919664  0.05494830  0.39247387    -0.15130
C2896       C  0.93183698  0.05943375  0.37931836    -0.15130
C2897       C  0.94362663  0.04003797  0.36552823     0.07020
C2898       C  0.93142088  0.01651335  0.36397450    -0.15130
H2899       H  0.90149831  0.99288788  0.37796227     0.11010
H2900       H  0.90179069  0.06957958  0.40469171     0.11010
H2901       H  0.94136772  0.07734886  0.38185397     0.11010
H2902       H  0.94062201  0.00088370  0.35451974     0.11010
C2903       C  0.82683325  0.11763648  0.44863064    -0.15130
C2904       C  0.81555136  0.09596618  0.43808134     0.07020
C2905       C  0.79738094  0.09874817  0.41917975    -0.15130
C2906       C  0.78973365  0.12285932  0.41183669    -0.15130
C2907       C  0.80036286  0.14450526  0.42309278     0.07020
C2908       C  0.81939102  0.14170292  0.44110562    -0.15130
H2909       H  0.84124550  0.11599954  0.46302311     0.11010
H2910       H  0.78857015  0.08237882  0.41068298     0.11010
H2911       H  0.77524072  0.12456780  0.39753514     0.11010
H2912       H  0.82795867  0.15804958  0.44989399     0.11010
C2913       C  0.52017067  0.25322875  0.48470506    -0.15130
C2914       C  0.50279162  0.27306143  0.48264634     0.07020
C2915       C  0.47680578  0.26752266  0.48275537    -0.15130
C2916       C  0.46837468  0.24247629  0.48302041    -0.15130
C2917       C  0.48584517  0.22262760  0.48250607     0.07020
C2918       C  0.51176044  0.22817468  0.48428456    -0.15130
H2919       H  0.54025440  0.25701556  0.48436104     0.11010
H2920       H  0.46305936  0.28257859  0.48108628     0.11010
H2921       H  0.44836224  0.23866645  0.48134138     0.11010
H2922       H  0.52556951  0.21309231  0.48378259     0.11010
C2923       C  0.51468667  0.23466336  0.25508700    -0.15130
C2924       C  0.51995310  0.26069127  0.25686431     0.07020
C2925       C  0.49972659  0.27775246  0.25741025    -0.15130
C2926       C  0.47480441  0.26883591  0.25838456    -0.15130
C2927       C  0.46959616  0.24273278  0.25812540     0.07020
C2928       C  0.48972821  0.22577746  0.25533966    -0.15130
H2929       H  0.52999062  0.22109700  0.25491003     0.11010
H2930       H  0.50322572  0.29782091  0.25923282     0.11010
H2931       H  0.45959305  0.28231327  0.26069188     0.11010
H2932       H  0.48630352  0.20561574  0.25545655     0.11010
C2933       C  0.65598310  0.23801008  0.34841112    -0.15130
C2934       C  0.65859206  0.25930058  0.33276139     0.07020
C2935       C  0.67949038  0.27526525  0.33582321    -0.15130
C2936       C  0.69907805  0.26820704  0.35172598    -0.15130
C2937       C  0.69780957  0.24532842  0.36488905     0.07020
C2938       C  0.67561900  0.23103477  0.36449272    -0.15130
H2939       H  0.63982395  0.22561537  0.34667428     0.11010
H2940       H  0.68168963  0.29210106  0.32442525     0.11010
H2941       H  0.71625407  0.27932389  0.35186963     0.11010
H2942       H  0.67461343  0.21314043  0.37435379     0.11010
C2943       C  0.65762235  0.35580823  0.30372083    -0.15130
C2944       C  0.64911635  0.35334854  0.27873302     0.07020
C2945       C  0.66250989  0.36572822  0.25950496    -0.15130
C2946       C  0.68491014  0.37875245  0.26485931    -0.15130
C2947       C  0.69470657  0.37923399  0.28946687     0.07020
C2948       C  0.68041059  0.36838684  0.30900328    -0.15130
H2949       H  0.64818051  0.34565006  0.31873782     0.11010
H2950       H  0.65683036  0.36342944  0.24001512     0.11010
H2951       H  0.69604281  0.38600574  0.24931567     0.11010
H2952       H  0.68805561  0.36752073  0.32792152     0.11010
C2953       C  0.62372340  0.18143752  0.25796252    -0.15130
C2954       C  0.62559192  0.20416019  0.24470111     0.07020
C2955       C  0.64078517  0.20572020  0.22312429    -0.15130
C2956       C  0.65661863  0.18581583  0.21679337    -0.15130
C2957       C  0.65740921  0.16428675  0.23213342     0.07020
C2958       C  0.63965771  0.16146603  0.25168549    -0.15130
H2959       H  0.61218482  0.18013937  0.27478619     0.11010
H2960       H  0.64226551  0.22328566  0.21272469     0.11010
H2961       H  0.66963068  0.18814858  0.20120598     0.11010
H2962       H  0.63953939  0.14474447  0.26344678     0.11010
C2963       C  0.54790850  0.32500459  0.34797526    -0.15130
C2964       C  0.56695652  0.30701050  0.34497540     0.07020
C2965       C  0.57865200  0.29665263  0.36651450    -0.15130
C2966       C  0.57068297  0.30337457  0.39067290    -0.15130
C2967       C  0.55071551  0.32036509  0.39366314     0.07020
C2968       C  0.53976759  0.33153621  0.37211622    -0.15130
H2969       H  0.53871709  0.33330286  0.33172402     0.11010
H2970       H  0.59372332  0.28294688  0.36467179     0.11010
H2971       H  0.57957777  0.29473313  0.40690771     0.11010
H2972       H  0.52457381  0.34511261  0.37389140     0.11010
C2973       C  0.26425212  0.49045223  0.48102187    -0.15130
C2974       C  0.26884763  0.48798929  0.50707128     0.07020
C2975       C  0.24828297  0.48733394  0.52365772    -0.15130
C2976       C  0.22360251  0.48669433  0.51416347    -0.15130
C2977       C  0.21906065  0.48728522  0.48797320     0.07020
C2978       C  0.23955213  0.49044627  0.47156276    -0.15130
H2979       H  0.27988207  0.49078398  0.46784918     0.11010
H2980       H  0.25131878  0.48504914  0.54372658     0.11010
H2981       H  0.20807768  0.48423011  0.52723214     0.11010
H2982       H  0.23662591  0.49070281  0.45135320     0.11010
C2983       C  0.42609845  0.40638499  0.52105710    -0.15130
C2984       C  0.40623931  0.41067107  0.50411666     0.07020
C2985       C  0.40438026  0.39594769  0.48213589    -0.15130
C2986       C  0.42390230  0.37951066  0.47565947    -0.15130
C2987       C  0.44517297  0.37780791  0.49118111     0.07020
C2988       C  0.44554455  0.39008103  0.51453704    -0.15130
H2989       H  0.42763460  0.41707627  0.53840208     0.11010
H2990       H  0.38902217  0.39870940  0.46894891     0.11010
H2991       H  0.42367356  0.37039990  0.45736644     0.11010
H2992       H  0.46205322  0.38897585  0.52655294     0.11010
C2993       C  0.26861663  0.26061310  0.50083588    -0.15130
C2994       C  0.25177723  0.26237676  0.52114660     0.07020
C2995       C  0.22564706  0.26204438  0.51624006    -0.15130
C2996       C  0.21653398  0.26141289  0.49142715    -0.15130
C2997       C  0.23341957  0.26182418  0.47108628     0.07020
C2998       C  0.25951447  0.26071858  0.47601162    -0.15130
H2999       H  0.28878708  0.26120214  0.50407630     0.11010
H3000       H  0.21227672  0.26355820  0.53162674     0.11010
H3001       H  0.19639871  0.26267258  0.48814357     0.11010
H3002       H  0.27290843  0.26125373  0.46058126     0.11010
C3003       C  0.17358207  0.26770208  0.62658590    -0.15130
C3004       C  0.19495419  0.25224174  0.62528942     0.07020
C3005       C  0.19500247  0.22860444  0.63706790    -0.15130
C3006       C  0.17509128  0.22174183  0.65262669    -0.15130
C3007       C  0.15513726  0.23865994  0.65672394     0.07020
C3008       C  0.15361249  0.26090439  0.64232616    -0.15130
H3009       H  0.17355512  0.28616147  0.61776678     0.11010
H3010       H  0.21153865  0.21658009  0.63617559     0.11010
H3011       H  0.17637841  0.20419307  0.66305277     0.11010
H3012       H  0.13819763  0.27408222  0.64494607     0.11010
C3013       C  0.35985154  0.26322209  0.66104486    -0.15130
C3014       C  0.34506146  0.28212583  0.64977729     0.07020
C3015       C  0.34560779  0.30655466  0.66013394    -0.15130
C3016       C  0.35907528  0.31143984  0.68246652    -0.15130
C3017       C  0.37278649  0.29216341  0.69452433     0.07020
C3018       C  0.37380110  0.26827142  0.68300383    -0.15130
H3019       H  0.35908100  0.24405557  0.65395347     0.11010
H3020       H  0.33361859  0.32120452  0.65238816     0.11010
H3021       H  0.35695350  0.32965096  0.69152386     0.11010
H3022       H  0.38318927  0.25276531  0.69247884     0.11010
C3023       C  0.31927611  0.35245828  0.54971128    -0.15130
C3024       C  0.30121786  0.34958747  0.56870033     0.07020
C3025       C  0.29144575  0.37119851  0.58080370    -0.15130
C3026       C  0.29880288  0.39532588  0.57330056    -0.15130
C3027       C  0.31587713  0.39823322  0.55341875     0.07020
C3028       C  0.32646399  0.37659881  0.54204580    -0.15130
H3029       H  0.32713134  0.33614246  0.54021827     0.11010
H3030       H  0.27769978  0.36946161  0.59583367     0.11010
H3031       H  0.29056789  0.41163322  0.58248384     0.11010
H3032       H  0.34005741  0.37832277  0.52688054     0.11010
C3033       C  0.49360390  0.49236708  0.26077224    -0.15130
C3034       C  0.47629326  0.51085378  0.26892743     0.07020
C3035       C  0.45782794  0.51929947  0.25216524    -0.15130
C3036       C  0.45619453  0.50935978  0.22793743    -0.15130
C3037       C  0.47293336  0.49039060  0.21952627     0.07020
C3038       C  0.49206175  0.48230198  0.23610914    -0.15130
H3039       H  0.50752845  0.48498611  0.27376409     0.11010
H3040       H  0.44377159  0.53286628  0.25828320     0.11010
H3041       H  0.44106697  0.51618169  0.21602054     0.11010
H3042       H  0.50522325  0.46777576  0.23032910     0.11010
C3043       C  0.47573549  0.42862534  0.37365080    -0.15130
C3044       C  0.49105917  0.45012075  0.37321307     0.07020
C3045       C  0.51412425  0.45025524  0.38603000    -0.15130
C3046       C  0.52025518  0.43042207  0.40197729    -0.15130
C3047       C  0.50318976  0.41045976  0.40532809     0.07020
C3048       C  0.48180247  0.40872670  0.38975486    -0.15130
H3049       H  0.45771869  0.42852436  0.36399313     0.11010
H3050       H  0.52604081  0.46689272  0.38578874     0.11010
H3051       H  0.53722501  0.43182284  0.41327645     0.11010
H3052       H  0.46860675  0.39323427  0.39171287     0.11010
C3053       C  0.40230158  0.52534560  0.42907272    -0.15130
C3054       C  0.40540865  0.50808635  0.40923420     0.07020
C3055       C  0.38941046  0.48698546  0.40761331    -0.15130
C3056       C  0.37296091  0.48145725  0.42740728    -0.15130
C3057       C  0.37259342  0.49700294  0.44874249     0.07020
C3058       C  0.38603317  0.51973771  0.44881069    -0.15130
H3059       H  0.41391862  0.54212428  0.43040289     0.11010
H3060       H  0.39116608  0.47365284  0.39222934     0.11010
H3061       H  0.36286322  0.46366713  0.42734931     0.11010
H3062       H  0.38590624  0.53181987  0.46531134     0.11010
C3063       C  0.24909899  0.50554212  0.26823257    -0.15130
C3064       C  0.25697251  0.52535285  0.25253771     0.07020
C3065       C  0.26091749  0.52033505  0.22671434    -0.15130
C3066       C  0.25880749  0.49574524  0.21715974    -0.15130
C3067       C  0.25318266  0.47560082  0.23333220     0.07020
C3068       C  0.24760978  0.48081972  0.25878172    -0.15130
H3069       H  0.24605551  0.50879645  0.28816171     0.11010
H3070       H  0.26691687  0.53528591  0.21411969     0.11010
H3071       H  0.26376978  0.49217662  0.19766323     0.11010
H3072       H  0.24367689  0.46548025  0.27171396     0.11010
C3073       C  0.30936352  0.68273029  0.36345462    -0.15130
C3074       C  0.29035455  0.69689730  0.37539413     0.07020
C3075       C  0.26562494  0.68729274  0.37545776    -0.15130
C3076       C  0.25961181  0.66524647  0.36205246    -0.15130
C3077       C  0.27831516  0.65192428  0.34879764     0.07020
C3078       C  0.30345588  0.66024506  0.35057339    -0.15130
H3079       H  0.32832802  0.69023790  0.36212695     0.11010
H3080       H  0.25042993  0.69834008  0.38355157     0.11010
H3081       H  0.24000072  0.65972794  0.36034630     0.11010
H3082       H  0.31807454  0.65087620  0.33977523     0.11010
C3083       C  0.26091285  0.62741059  0.17704818    -0.15130
C3084       C  0.24617257  0.62797902  0.19892939     0.07020
C3085       C  0.22311704  0.64084101  0.19912736    -0.15130
C3086       C  0.21638921  0.65580455  0.17875329    -0.15130
C3087       C  0.23291304  0.65824459  0.15821986     0.07020
C3088       C  0.25429007  0.64260851  0.15663001    -0.15130
H3089       H  0.27886497  0.61761292  0.17684292     0.11010
H3090       H  0.21157262  0.64125443  0.21600510     0.11010
H3091       H  0.19942761  0.66715456  0.18010532     0.11010
H3092       H  0.26707324  0.64387342  0.14073977     0.11010
C3093       C  0.34714309  0.55018742  0.31889897    -0.15130
C3094       C  0.34440434  0.57190123  0.30426672     0.07020
C3095       C  0.36586414  0.58617119  0.29770571    -0.15130
C3096       C  0.38991189  0.57825110  0.30491712    -0.15130
C3097       C  0.39277566  0.55585540  0.31861032     0.07020
C3098       C  0.37111578  0.54216724  0.32592762    -0.15130
H3099       H  0.33088521  0.53891126  0.32405886     0.11010
H3100       H  0.36405067  0.60323413  0.28657218     0.11010
H3101       H  0.40619303  0.58926107  0.29930830     0.11010
H3102       H  0.37264517  0.52489796  0.33676579     0.11010
C3103       C  0.51214467  0.72888799  0.50865036    -0.15130
C3104       C  0.48631664  0.72260270  0.50850370     0.07020
C3105       C  0.46849318  0.74213092  0.50661941    -0.15130
C3106       C  0.47621406  0.76738658  0.50714181    -0.15130
C3107       C  0.50192729  0.77365731  0.50946897     0.07020
C3108       C  0.51986969  0.75415351  0.50908876    -0.15130
H3109       H  0.52639874  0.71428854  0.50997467     0.11010
H3110       H  0.44848833  0.73796365  0.50641508     0.11010
H3111       H  0.46190401  0.78199252  0.50720411     0.11010
H3112       H  0.53979720  0.75833371  0.51083687     0.11010
C3113       C  0.43479152  0.60082399  0.40985093    -0.15130
C3114       C  0.45930623  0.60008712  0.39973581     0.07020
C3115       C  0.47821210  0.61466508  0.41124055    -0.15130
C3116       C  0.47309189  0.62848776  0.43326761    -0.15130
C3117       C  0.44910937  0.62757869  0.44457970     0.07020
C3118       C  0.42981506  0.61419858  0.43222681    -0.15130
H3119       H  0.42012656  0.58900181  0.40190640     0.11010
H3120       H  0.49743010  0.61374110  0.40432841     0.11010
H3121       H  0.48858267  0.63765553  0.44295565     0.11010
H3122       H  0.41150934  0.61219877  0.44110415     0.11010
C3123       C  0.39408204  0.58086054  0.56053789    -0.15130
C3124       C  0.39368604  0.59428131  0.53766844     0.07020
C3125       C  0.37495291  0.58876196  0.51987340    -0.15130
C3126       C  0.35926024  0.56776644  0.52337142    -0.15130
C3127       C  0.36187420  0.55238021  0.54486107     0.07020
C3128       C  0.37804425  0.56020636  0.56424443    -0.15130
H3129       H  0.40836297  0.58492986  0.57456387     0.11010
H3130       H  0.37446692  0.59870819  0.50202853     0.11010
H3131       H  0.34738751  0.56169228  0.50788960     0.11010
H3132       H  0.38089236  0.54832500  0.58063891     0.11010
C3133       C  0.47483846  0.76165219  0.73583391    -0.15130
C3134       C  0.46891842  0.73574017  0.73477343     0.07020
C3135       C  0.48872430  0.71814051  0.73560230    -0.15130
C3136       C  0.51385647  0.72626647  0.73530695    -0.15130
C3137       C  0.51976269  0.75217938  0.73427948     0.07020
C3138       C  0.49998781  0.76978210  0.73563962    -0.15130
H3139       H  0.46002425  0.77573532  0.73533718     0.11010
H3140       H  0.48485778  0.69807552  0.73483488     0.11010
H3141       H  0.52865227  0.71217900  0.73445856     0.11010
H3142       H  0.50386228  0.78984648  0.73490876     0.11010
C3143       C  0.31317709  0.60909117  0.71876294    -0.15130
C3144       C  0.29840392  0.61163769  0.69685531     0.07020
C3145       C  0.30718340  0.62713406  0.67730318    -0.15130
C3146       C  0.32823081  0.64262884  0.68111075    -0.15130
C3147       C  0.34113100  0.64233995  0.70427026     0.07020
C3148       C  0.33457712  0.62421307  0.72237424    -0.15130
H3149       H  0.30634653  0.59782091  0.73439399     0.11010
H3150       H  0.29576332  0.63000056  0.66059765     0.11010
H3151       H  0.33295952  0.65656510  0.66691760     0.11010
H3152       H  0.34401694  0.62390680  0.74048586     0.11010
C3153       C  0.33659437  0.75792034  0.63794253    -0.15130
C3154       C  0.33674932  0.73651185  0.65337257     0.07020
C3155       C  0.31647037  0.71953385  0.65262390    -0.15130
C3156       C  0.29492057  0.72532016  0.63887432    -0.15130
C3157       C  0.29335623  0.74831260  0.62589127     0.07020
C3158       C  0.31490201  0.76381205  0.62415048    -0.15130
H3159       H  0.35207514  0.77126325  0.63854511     0.11010
H3160       H  0.31644060  0.70286796  0.66448043     0.11010
H3161       H  0.27876268  0.71285625  0.64019192     0.11010
H3162       H  0.31421303  0.78160412  0.61410014     0.11010
C3163       C  0.37751586  0.72221166  0.80892255    -0.15130
C3164       C  0.37413685  0.69833722  0.79782003     0.07020
C3165       C  0.35890568  0.68059463  0.81037268    -0.15130
C3166       C  0.34629016  0.68702277  0.83279241    -0.15130
C3167       C  0.34807491  0.71155669  0.84273757     0.07020
C3168       C  0.36433941  0.72887837  0.83096154    -0.15130
H3169       H  0.38817121  0.73662192  0.79907029     0.11010
H3170       H  0.35503492  0.66249874  0.80167272     0.11010
H3171       H  0.33313652  0.67363887  0.84093017     0.11010
H3172       H  0.36536818  0.74814738  0.83772884     0.11010
C3173       C  0.44507110  0.70052744  0.63458206    -0.15130
C3174       C  0.42683493  0.68623217  0.64742700     0.07020
C3175       C  0.41284824  0.66815997  0.63390600    -0.15130
C3176       C  0.41709917  0.66464045  0.60790944    -0.15130
C3177       C  0.43548028  0.67905432  0.59524867     0.07020
C3178       C  0.44937918  0.69694148  0.60896131    -0.15130
H3179       H  0.45593217  0.71481204  0.64438111     0.11010
H3180       H  0.39825299  0.65732265  0.64325005     0.11010
H3181       H  0.40654672  0.65029700  0.59788444     0.11010
H3182       H  0.46388148  0.70811457  0.59984800     0.11010
C3183       C  0.74956497  0.50585219  0.52133352    -0.15130
C3184       C  0.76957127  0.50684442  0.50399106     0.07020
C3185       C  0.76385951  0.50672707  0.47803206    -0.15130
C3186       C  0.73877362  0.50763747  0.46968937    -0.15130
C3187       C  0.71885456  0.50880204  0.48712220     0.07020
C3188       C  0.72451827  0.50687615  0.51300281    -0.15130
H3189       H  0.75323833  0.50592455  0.54141908     0.11010
H3190       H  0.77881418  0.50742203  0.46412560     0.11010
H3191       H  0.73508671  0.50907719  0.44965668     0.11010
H3192       H  0.70960602  0.50753703  0.52695965     0.11010
C3193       C  0.58598471  0.60610572  0.51027486    -0.15130
C3194       C  0.58649827  0.59104703  0.48863088     0.07020
C3195       C  0.56616218  0.59150380  0.47176216    -0.15130
C3196       C  0.54428365  0.60462026  0.47780102    -0.15130
C3197       C  0.54245611  0.61722837  0.50095096     0.07020
C3198       C  0.56396641  0.61926785  0.51642156    -0.15130
H3199       H  0.60147924  0.60561657  0.52358743     0.11010
H3200       H  0.56634803  0.57978217  0.45503275     0.11010
H3201       H  0.52813172  0.60308388  0.46537564     0.11010
H3202       H  0.56305298  0.62903494  0.53433984     0.11010
C3203       C  0.58349234  0.51959573  0.37736339    -0.15130
C3204       C  0.58903755  0.53750123  0.39600609     0.07020
C3205       C  0.57562221  0.56041522  0.39626026    -0.15130
C3206       C  0.55512195  0.56416498  0.38003936    -0.15130
C3207       C  0.54738266  0.54479239  0.36377880     0.07020
C3208       C  0.56263459  0.52313171  0.36149560    -0.15130
H3209       H  0.59340089  0.50170563  0.37697551     0.11010
H3210       H  0.57968769  0.57454406  0.41044581     0.11010
H3211       H  0.54331513  0.58066298  0.38271725     0.11010
H3212       H  0.55660029  0.50761089  0.34963484     0.11010
C3213       C  0.62457336  0.43335242  0.47413691    -0.15130
C3214       C  0.62333616  0.44542066  0.45058348     0.07020
C3215       C  0.60959688  0.43389285  0.43107570    -0.15130
C3216       C  0.59597811  0.41160557  0.43553843    -0.15130
C3217       C  0.59548096  0.40081054  0.45972048     0.07020
C3218       C  0.61055008  0.41137262  0.47874766    -0.15130
H3219       H  0.63410280  0.44244984  0.48975956     0.11010
H3220       H  0.60744366  0.44341591  0.41312182     0.11010
H3221       H  0.58377237  0.40431855  0.42085551     0.11010
H3222       H  0.60978228  0.40384840  0.49772991     0.11010
C3223       C  0.71908505  0.73365081  0.49093863    -0.15130
C3224       C  0.73676967  0.73321786  0.47121897     0.07020
C3225       C  0.76262072  0.73453483  0.47723839    -0.15130
C3226       C  0.77064846  0.73418439  0.50237081    -0.15130
C3227       C  0.75300913  0.73243917  0.52205508     0.07020
C3228       C  0.72711818  0.73322711  0.51608660    -0.15130
H3229       H  0.69906445  0.73264580  0.48697458     0.11010
H3230       H  0.77676321  0.73436602  0.46249032     0.11010
H3231       H  0.79069818  0.73369303  0.50628612     0.11010
H3232       H  0.71300262  0.73205558  0.53081381     0.11010
C3233       C  0.66177063  0.63783637  0.42452317    -0.15130
C3234       C  0.68708223  0.64568558  0.42491506     0.07020
C3235       C  0.70613124  0.62741354  0.42845930    -0.15130
C3236       C  0.70009690  0.60218315  0.43261359    -0.15130
C3237       C  0.67493482  0.59450813  0.43294056     0.07020
C3238       C  0.65573115  0.61234247  0.42867381    -0.15130
H3239       H  0.64675560  0.65140265  0.42163166     0.11010
H3240       H  0.72588936  0.63263300  0.42837395     0.11010
H3241       H  0.71505648  0.58875397  0.43640031     0.11010
H3242       H  0.63609642  0.60671373  0.42964882     0.11010
C3243       C  0.64581339  0.68194106  0.32794814    -0.15130
C3244       C  0.64561541  0.70488838  0.34128607     0.07020
C3245       C  0.62724828  0.72299796  0.33538290    -0.15130
C3246       C  0.61156742  0.71954468  0.31436528    -0.15130
C3247       C  0.61368514  0.69773049  0.29933106     0.07020
C3248       C  0.62974656  0.67826218  0.30730813    -0.15130
H3249       H  0.65984584  0.66769939  0.33221216     0.11010
H3250       H  0.62695663  0.74094610  0.34517364     0.11010
H3251       H  0.59991038  0.73515355  0.30813117     0.11010
H3252       H  0.63234034  0.66165687  0.29565037     0.11010
C3253       C  0.50504877  0.51464298  0.72656868    -0.15130
C3254       C  0.50671841  0.48880848  0.72045948     0.07020
C3255       C  0.50640240  0.47105846  0.74013081    -0.15130
C3256       C  0.50654633  0.47902424  0.76531181    -0.15130
C3257       C  0.50691628  0.50492075  0.77139433     0.07020
C3258       C  0.50510430  0.52260614  0.75174675    -0.15130
H3259       H  0.50513259  0.52883709  0.71186460     0.11010
H3260       H  0.50768116  0.45104927  0.73611276     0.11010
H3261       H  0.50779480  0.46486307  0.77999456     0.11010
H3262       H  0.50531137  0.54265866  0.75573981     0.11010
C3263       C  0.60312098  0.51353719  0.58786052    -0.15130
C3264       C  0.58874019  0.49141759  0.58883013     0.07020
C3265       C  0.59008940  0.47392423  0.56905768    -0.15130
C3266       C  0.60327058  0.47976767  0.54717466    -0.15130
C3267       C  0.61508473  0.50331897  0.54477833     0.07020
C3268       C  0.61637831  0.51946974  0.56584024    -0.15130
H3269       H  0.60196773  0.52731279  0.60291635     0.11010
H3270       H  0.57894542  0.45678831  0.56960791     0.11010
H3271       H  0.60232954  0.46682387  0.53138289     0.11010
H3272       H  0.62551117  0.53771295  0.56447990     0.11010
C3273       C  0.51613287  0.37993453  0.58444342    -0.15130
C3274       C  0.53486846  0.39768158  0.59024337     0.07020
C3275       C  0.55753066  0.39745981  0.57645001    -0.15130
C3276       C  0.56031816  0.38164601  0.55547576    -0.15130
C3277       C  0.54021922  0.36633188  0.54765186     0.07020
C3278       C  0.51868404  0.36454824  0.56309744    -0.15130
H3279       H  0.49838378  0.38001235  0.59458762     0.11010
H3280       H  0.57221466  0.41105089  0.58061509     0.11010
H3281       H  0.57674576  0.38393649  0.54351553     0.11010
H3282       H  0.50264042  0.35343226  0.55700985     0.11010
C3283       C  0.47604954  0.54806379  0.60320291    -0.15130
C3284       C  0.49921325  0.54624654  0.61579341     0.07020
C3285       C  0.51460098  0.56782280  0.61799923    -0.15130
C3286       C  0.50843784  0.58987897  0.60490343    -0.15130
C3287       C  0.48686381  0.59034798  0.58974658     0.07020
C3288       C  0.46998133  0.56998403  0.59017102    -0.15130
H3289       H  0.46366854  0.53186623  0.60157673     0.11010
H3290       H  0.53251192  0.56692096  0.62778764     0.11010
H3291       H  0.52173593  0.60540792  0.60448707     0.11010
H3292       H  0.45325876  0.57015567  0.57843252     0.11010
C3293       C  0.43113858  0.47531887  0.62753722    -0.15130
C3294       C  0.44330141  0.45185664  0.62501301     0.07020
C3295       C  0.43168936  0.43311144  0.61026005    -0.15130
C3296       C  0.40921509  0.43821506  0.59713856    -0.15130
C3297       C  0.39820482  0.46234023  0.59807857     0.07020
C3298       C  0.40896491  0.48060407  0.61398777    -0.15130
H3299       H  0.44025335  0.49047105  0.63780065     0.11010
H3300       H  0.44122250  0.41529954  0.60704559     0.11010
H3301       H  0.40185389  0.42413098  0.58427898     0.11010
H3302       H  0.40137092  0.49959424  0.61433894     0.11010
C3303       C  0.73376857  0.49062667  0.71941769    -0.15130
C3304       C  0.73185973  0.47045992  0.73649664     0.07020
C3305       C  0.73261097  0.47573715  0.76252285    -0.15130
C3306       C  0.73312726  0.50068174  0.77124369    -0.15130
C3307       C  0.73281369  0.52090662  0.75413129     0.07020
C3308       C  0.73420263  0.51557633  0.72813827    -0.15130
H3309       H  0.73330266  0.48723943  0.69928571     0.11010
H3310       H  0.73135315  0.46061860  0.77622059     0.11010
H3311       H  0.73206704  0.50409914  0.79134873     0.11010
H3312       H  0.73411250  0.53072977  0.71442119     0.11010
C3313       C  0.63128373  0.41260720  0.66822718    -0.15130
C3314       C  0.64636951  0.42907480  0.68257080     0.07020
C3315       C  0.63542704  0.45077245  0.69294778    -0.15130
C3316       C  0.60994807  0.45594746  0.68937625    -0.15130
C3317       C  0.59448414  0.43943613  0.67548410     0.07020
C3318       C  0.60543306  0.41773728  0.66473074    -0.15130
H3319       H  0.63923273  0.39535431  0.66065387     0.11010
H3320       H  0.64656322  0.46349606  0.70444475     0.11010
H3321       H  0.60231878  0.47298555  0.69772057     0.11010
H3322       H  0.59410997  0.40492358  0.65355280     0.11010
C3323       C  0.68222447  0.33016242  0.64137691    -0.15130
C3324       C  0.70554120  0.34283156  0.64166394     0.07020
C3325       C  0.72437984  0.33551253  0.62463824    -0.15130
C3326       C  0.72116282  0.31369667  0.61006167    -0.15130
C3327       C  0.69894336  0.29926371  0.61206535     0.07020
C3328       C  0.67883979  0.30865190  0.62643660    -0.15130
H3329       H  0.66753465  0.33542189  0.65459101     0.11010
H3330       H  0.74263486  0.34471509  0.62489693     0.11010
H3331       H  0.73717245  0.30638839  0.59964227     0.11010
H3332       H  0.66187047  0.29749937  0.62886890     0.11010
C3333       C  0.98524154  0.47517102  0.22571297    -0.15130
C3334       C  0.98391886  0.50107423  0.21984045     0.07020
C3335       C  0.98476216  0.51872624  0.23954383    -0.15130
C3336       C  0.98446814  0.51062415  0.26461332    -0.15130
C3337       C  0.98344522  0.48471538  0.27046409     0.07020
C3338       C  0.98505869  0.46706533  0.25080396    -0.15130
H3339       H  0.98482195  0.46108075  0.21091931     0.11010
H3340       H  0.98386732  0.53878324  0.23565354     0.11010
H3341       H  0.98357139  0.52470738  0.27939452     0.11010
H3342       H  0.98444916  0.44700114  0.25471459     0.11010
C3343       C  0.01236101  0.44233355  0.10187399    -0.15130
C3344       C  0.98938388  0.44425676  0.11480203     0.07020
C3345       C  0.97374230  0.42283433  0.11685710    -0.15130
C3346       C  0.97953193  0.40084663  0.10344179    -0.15130
C3347       C  0.00099117  0.40028069  0.08810201     0.07020
C3348       C  0.01804762  0.42050282  0.08852740    -0.15130
H3349       H  0.02492610  0.45839581  0.10030911     0.11010
H3350       H  0.95595442  0.42381806  0.12687216     0.11010
H3351       H  0.96609724  0.38543724  0.10304337     0.11010
H3352       H  0.03468246  0.42027468  0.07665799     0.11010
C3353       C  0.05841324  0.55818369  0.11211256    -0.15130
C3354       C  0.04641767  0.53875621  0.12561796     0.07020
C3355       C  0.05833445  0.51509937  0.12715425    -0.15130
C3356       C  0.08064485  0.51032923  0.11369371    -0.15130
C3357       C  0.09174568  0.52928257  0.09886094     0.07020
C3358       C  0.08103470  0.55355949  0.09906346    -0.15130
H3359       H  0.04907558  0.57622521  0.10971537     0.11010
H3360       H  0.04893271  0.49951886  0.13649514     0.11010
H3361       H  0.08802287  0.49125709  0.11311628     0.11010
H3362       H  0.08867441  0.56819753  0.08699549     0.11010
C3363       C  0.75769508  0.51477229  0.26420514    -0.15130
C3364       C  0.75886889  0.52084120  0.23840142     0.07020
C3365       C  0.75883432  0.50119022  0.22063807    -0.15130
C3366       C  0.75997007  0.47605070  0.22855565    -0.15130
C3367       C  0.76100237  0.47008150  0.25438611     0.07020
C3368       C  0.75868167  0.48961938  0.27212283    -0.15130
H3369       H  0.75755451  0.52951397  0.27835787     0.11010
H3370       H  0.75971667  0.50524073  0.20063930     0.11010
H3371       H  0.76146187  0.46137397  0.21441203     0.11010
H3372       H  0.75927446  0.48561898  0.29214096     0.11010
C3373       C  0.85802895  0.57647469  0.16922164    -0.15130
C3374       C  0.84437397  0.56207578  0.18686163     0.07020
C3375       C  0.85674761  0.54248901  0.19969714    -0.15130
C3376       C  0.88210302  0.53732896  0.19516749    -0.15130
C3377       C  0.89602357  0.55176902  0.17784138     0.07020
C3378       C  0.88376159  0.57141834  0.16481298    -0.15130
H3379       H  0.84904971  0.59206548  0.15951460     0.11010
H3380       H  0.84680543  0.53128124  0.21361448     0.11010
H3381       H  0.89086791  0.52188769  0.20531426     0.11010
H3382       H  0.89391303  0.58249358  0.15095971     0.11010
C3383       C  0.72797797  0.63787747  0.29723797    -0.15130
C3384       C  0.75145172  0.62590158  0.29506697     0.07020
C3385       C  0.76733591  0.62436715  0.31631276    -0.15130
C3386       C  0.76117912  0.63742430  0.33837846    -0.15130
C3387       C  0.73910055  0.65186296  0.33922493     0.07020
C3388       C  0.72190794  0.65086089  0.31917886    -0.15130
H3389       H  0.71524933  0.63901349  0.28129520     0.11010
H3390       H  0.78552358  0.61510576  0.31512886     0.11010
H3391       H  0.77475217  0.63835397  0.35362127     0.11010
H3392       H  0.70484186  0.66210926  0.31960741     0.11010
C3393       C  0.68193782  0.62921007  0.18195312    -0.15130
C3394       C  0.69401709  0.61538087  0.20110954     0.07020
C3395       C  0.68194213  0.61328500  0.22462724    -0.15130
C3396       C  0.65934451  0.62633507  0.22949227    -0.15130
C3397       C  0.64803093  0.64134961  0.21078485     0.07020
C3398       C  0.65903905  0.64183089  0.18665778    -0.15130
H3399       H  0.69134160  0.63210297  0.16404309     0.11010
H3400       H  0.69135589  0.60375005  0.24006377     0.11010
H3401       H  0.65185098  0.62643030  0.24849944     0.11010
H3402       H  0.65134386  0.65409204  0.17221972     0.11010
C3403       C  0.23769463  0.47712808  0.73300666    -0.15130
C3404       C  0.23408733  0.47254760  0.75895267     0.07020
C3405       C  0.23194642  0.49323590  0.77527580    -0.15130
C3406       C  0.23109068  0.51787716  0.76553841    -0.15130
C3407       C  0.23283629  0.52235197  0.73934610     0.07020
C3408       C  0.23739246  0.50179676  0.72332416    -0.15130
H3409       H  0.23915382  0.46143747  0.71998154     0.11010
H3410       H  0.22872300  0.49026825  0.79522815     0.11010
H3411       H  0.22760480  0.53339175  0.77838860     0.11010
H3412       H  0.23862283  0.50457920  0.70313004     0.11010
C3413       C  0.14526813  0.33449835  0.72959879    -0.15130
C3414       C  0.15717479  0.33476813  0.75325247     0.07020
C3415       C  0.15046500  0.31677882  0.77149823    -0.15130
C3416       C  0.13429687  0.29709654  0.76522758    -0.15130
C3417       C  0.12447895  0.29545938  0.74082468     0.07020
C3418       C  0.12897171  0.31478920  0.72337909    -0.15130
H3419       H  0.15013399  0.34824571  0.71527139     0.11010
H3420       H  0.15910658  0.31689406  0.79000619     0.11010
H3421       H  0.13120724  0.28199247  0.77867085     0.11010
H3422       H  0.12194286  0.31329705  0.70424740     0.11010
C3423       C  0.23009786  0.36952542  0.67879803    -0.15130
C3424       C  0.24488189  0.36824557  0.70060953     0.07020
C3425       C  0.26690151  0.35370509  0.70094706    -0.15130
C3426       C  0.27235042  0.33790278  0.68083095    -0.15130
C3427       C  0.25557622  0.33635501  0.66041857     0.07020
C3428       C  0.23541661  0.35349850  0.65865033    -0.15130
H3429       H  0.21287968  0.38056750  0.67853377     0.11010
H3430       H  0.27840329  0.35264456  0.71781701     0.11010
H3431       H  0.28844569  0.32537036  0.68229668     0.11010
H3432       H  0.22252164  0.35295647  0.64282126     0.11010
C3433       C  0.31357139  0.38117766  0.77538988    -0.15130
C3434       C  0.29813169  0.37823016  0.79681619     0.07020
C3435       C  0.30579087  0.36137929  0.81571997    -0.15130
C3436       C  0.32634216  0.34524743  0.81162832    -0.15130
C3437       C  0.33989007  0.34613280  0.78883073     0.07020
C3438       C  0.33445226  0.36536156  0.77149973    -0.15130
H3439       H  0.30761383  0.39348179  0.76018869     0.11010
H3440       H  0.29385882  0.35816953  0.83200904     0.11010
H3441       H  0.33027586  0.33058604  0.82531310     0.11010
H3442       H  0.34442109  0.36624366  0.75368563     0.11010
C3443       C  0.18375769  0.33115811  0.84911693    -0.15130
C3444       C  0.20801258  0.34190163  0.84945865     0.07020
C3445       C  0.22661081  0.33065417  0.86463506    -0.15130
C3446       C  0.22153406  0.30826018  0.87792507    -0.15130
C3447       C  0.19791739  0.29634570  0.87589957     0.07020
C3448       C  0.17883923  0.30845148  0.86198644    -0.15130
H3449       H  0.16937374  0.33889340  0.83682539     0.11010
H3450       H  0.24567799  0.33802479  0.86451700     0.11010
H3451       H  0.23689856  0.29880922  0.88755306     0.11010
H3452       H  0.16084933  0.29915813  0.85918030     0.11010
C3453       C  0.99743507  0.51347276  0.73945908    -0.15130
C3454       C  0.01236553  0.50171798  0.72090327     0.07020
C3455       C  0.02506170  0.47917280  0.72736573    -0.15130
C3456       C  0.02402472  0.46939495  0.75176987    -0.15130
C3457       C  0.01019131  0.48168474  0.77053612     0.07020
C3458       C  0.99660191  0.50365681  0.76421173    -0.15130
H3459       H  0.98750444  0.53082480  0.73521110     0.11010
H3460       H  0.03672259  0.46939549  0.71372302     0.11010
H3461       H  0.03523581  0.45289784  0.75636624     0.11010
H3462       H  0.98634436  0.51382367  0.77866441     0.11010
C3463       C  0.00857912  0.37849781  0.91327284    -0.15130
C3464       C  0.02793568  0.39077424  0.89998900     0.07020
C3465       C  0.05302863  0.38708982  0.90781074    -0.15130
C3466       C  0.05839236  0.37327496  0.92986552    -0.15130
C3467       C  0.03881184  0.36237373  0.94407491     0.07020
C3468       C  0.01399812  0.36420458  0.93487349    -0.15130
H3469       H  0.98905006  0.38163324  0.90809727     0.11010
H3470       H  0.06820016  0.39706395  0.89841032     0.11010
H3471       H  0.07750438  0.37315724  0.93709411     0.11010
H3472       H  0.99844316  0.35692172  0.94597500     0.11010
C3473       C  0.08755878  0.46673535  0.93016560    -0.15130
C3474       C  0.08486124  0.48309074  0.90953702     0.07020
C3475       C  0.10084911  0.50416857  0.90732872    -0.15130
C3476       C  0.11674534  0.51070402  0.92724015    -0.15130
C3477       C  0.11658339  0.49616376  0.94925696     0.07020
C3478       C  0.10330021  0.47333384  0.95000869    -0.15130
H3479       H  0.07593035  0.45001027  0.93199176     0.11010
H3480       H  0.09940467  0.51682057  0.89134744     0.11010
H3481       H  0.12677608  0.52852102  0.92661381     0.11010
H3482       H  0.10309763  0.46198361  0.96702431     0.11010
C3483       C  0.09886593  0.42930980  0.79208653    -0.15130
C3484       C  0.09360237  0.43274549  0.81760740     0.07020
C3485       C  0.11313444  0.43124063  0.83547293    -0.15130
C3486       C  0.13792492  0.42674162  0.82779887    -0.15130
C3487       C  0.14341701  0.42402556  0.80211966     0.07020
C3488       C  0.12360872  0.42507138  0.78437195    -0.15130
H3489       H  0.08411139  0.43126354  0.77807593     0.11010
H3490       H  0.10924238  0.43437453  0.85529143     0.11010
H3491       H  0.15272552  0.42555737  0.84182635     0.11010
H3492       H  0.12727450  0.42299312  0.76438519     0.11010
C3493       C  0.47754211  0.22663883  0.98355410    -0.15130
C3494       C  0.50360384  0.22145777  0.98211742     0.07020
C3495       C  0.52055787  0.24181926  0.98269385    -0.15130
C3496       C  0.51162942  0.26673898  0.98264498    -0.15130
C3497       C  0.48553074  0.27190817  0.98211509     0.07020
C3498       C  0.46861496  0.25155947  0.98359916    -0.15130
H3499       H  0.46391921  0.21140096  0.98324478     0.11010
H3500       H  0.54070199  0.23855093  0.98158011     0.11010
H3501       H  0.52523032  0.28196712  0.98164050     0.11010
H3502       H  0.44844328  0.25481861  0.98321521     0.11010
C3503       C  0.55969781  0.11469366  0.05941554    -0.15130
C3504       C  0.54016191  0.12488967  0.04458892     0.07020
C3505       C  0.51515763  0.12163894  0.05287439    -0.15130
C3506       C  0.50966581  0.10701279  0.07428044    -0.15130
C3507       C  0.52907509  0.09577047  0.08841837     0.07020
C3508       C  0.55422490  0.10060152  0.08134321    -0.15130
H3509       H  0.57904117  0.11584606  0.05291893     0.11010
H3510       H  0.49967202  0.12835181  0.04134493     0.11010
H3511       H  0.49012689  0.10307058  0.07883857     0.11010
H3512       H  0.56953194  0.09148472  0.09135982     0.11010
C3513       C  0.51341366  0.26329476  0.75644452    -0.15130
C3514       C  0.51942152  0.23738212  0.75703271     0.07020
C3515       C  0.49965996  0.21976365  0.75572387    -0.15130
C3516       C  0.47448094  0.22783681  0.75594728    -0.15130
C3517       C  0.46847728  0.25371984  0.75736838     0.07020
C3518       C  0.48823694  0.27136919  0.75654997    -0.15130
H3519       H  0.52818105  0.27740190  0.75729430     0.11010
H3520       H  0.50358915  0.19969851  0.75613255     0.11010
H3521       H  0.45971561  0.21370832  0.75642278     0.11010
H3522       H  0.48431384  0.29141142  0.75760862     0.11010
C3523       C  0.54349714  0.17374044  0.84925714    -0.15130
C3524       C  0.56650592  0.18477451  0.84270037     0.07020
C3525       C  0.58397699  0.19073259  0.86181452    -0.15130
C3526       C  0.57834613  0.18596785  0.88726468    -0.15130
C3527       C  0.55479800  0.17593003  0.89393754     0.07020
C3528       C  0.53764638  0.16949842  0.87462495    -0.15130
H3529       H  0.52965026  0.16942410  0.83487109     0.11010
H3530       H  0.60172808  0.19969064  0.85704702     0.11010
H3531       H  0.59187843  0.19103071  0.90169755     0.11010
H3532       H  0.51943419  0.16143172  0.87918499     0.11010
C3533       C  0.63917100  0.29397191  0.72362523    -0.15130
C3534       C  0.62549934  0.29261608  0.74623125     0.07020
C3535       C  0.62269091  0.31453648  0.76102916    -0.15130
C3536       C  0.63601758  0.33649883  0.75491823    -0.15130
C3537       C  0.65211482  0.33656787  0.73400817     0.07020
C3538       C  0.65250366  0.31577781  0.71765110    -0.15130
H3539       H  0.64133059  0.27753428  0.71165629     0.11010
H3540       H  0.61209189  0.31404581  0.77848629     0.11010
H3541       H  0.63572272  0.35237235  0.76779661     0.11010
H3542       H  0.66486108  0.31566016  0.70136134     0.11010
C3543       C  0.62857266  0.17973680  0.67948103    -0.15130
C3544       C  0.61419445  0.19878584  0.69112790     0.07020
C3545       C  0.61264858  0.22247122  0.67923717    -0.15130
C3546       C  0.62692465  0.22765975  0.65748763    -0.15130
C3547       C  0.64261274  0.20910034  0.64685482     0.07020
C3548       C  0.64244575  0.18476999  0.65743553    -0.15130
H3549       H  0.63104805  0.16170031  0.68880236     0.11010
H3550       H  0.60270928  0.23783347  0.68837799     0.11010
H3551       H  0.62738703  0.24678104  0.65024376     0.11010
H3552       H  0.65508122  0.17040487  0.65019459     0.11010
C3553       C  0.49083595  0.77216547  0.23557101    -0.15130
C3554       C  0.47000697  0.75603012  0.23313911     0.07020
C3555       C  0.47419577  0.72971434  0.23345261    -0.15130
C3556       C  0.49875184  0.71977021  0.23442493    -0.15130
C3557       C  0.51966589  0.73596443  0.23449858     0.07020
C3558       C  0.51542336  0.76223194  0.23590832    -0.15130
H3559       H  0.48825404  0.79244761  0.23505768     0.11010
H3560       H  0.45845631  0.71681384  0.23148782     0.11010
H3561       H  0.50141228  0.69954886  0.23289245     0.11010
H3562       H  0.53125684  0.77516860  0.23572698     0.11010
C3563       C  0.34804355  0.70613719  0.26610413    -0.15130
C3564       C  0.36331167  0.70418620  0.24462867     0.07020
C3565       C  0.36471277  0.68138378  0.23141707    -0.15130
C3566       C  0.34836881  0.66173597  0.23770444    -0.15130
C3567       C  0.33070665  0.66491854  0.25726276     0.07020
C3568       C  0.33186227  0.68653604  0.27248778    -0.15130
H3569       H  0.34688791  0.72375590  0.27645035     0.11010
H3570       H  0.37629231  0.67979147  0.21464740     0.11010
H3571       H  0.34818708  0.64496753  0.22601965     0.11010
H3572       H  0.31891208  0.68917840  0.28807745     0.11010
C3573       C  0.38053558  0.77660041  0.31181492    -0.15130
C3574       C  0.37761266  0.79837646  0.29683877     0.07020
C3575       C  0.36136076  0.81749640  0.30525727    -0.15130
C3576       C  0.34589078  0.81346753  0.32630282    -0.15130
C3577       C  0.34677393  0.79045970  0.33953992     0.07020
C3578       C  0.36535766  0.77274117  0.33316082    -0.15130
H3579       H  0.39230598  0.76121646  0.30524007     0.11010
H3580       H  0.35810692  0.83403472  0.29366674     0.11010
H3581       H  0.33162907  0.82739213  0.33087787     0.11010
H3582       H  0.36612967  0.75472265  0.34280010     0.11010
C3583       C  0.33445340  0.87010394  0.22324438    -0.15130
C3584       C  0.34485092  0.85363424  0.20523608     0.07020
C3585       C  0.33362746  0.85253419  0.18124989    -0.15130
C3586       C  0.31117300  0.86576854  0.17619339    -0.15130
C3587       C  0.29967222  0.88074582  0.19485896     0.07020
C3588       C  0.31226196  0.88373225  0.21800958    -0.15130
H3589       H  0.34214215  0.87060830  0.24215857     0.11010
H3590       H  0.34063184  0.83926571  0.16735626     0.11010
H3591       H  0.30139386  0.86219835  0.15861629     0.11010
H3592       H  0.30332030  0.89417528  0.23313880     0.11010
C3593       C  0.33201424  0.73270498  0.14388753    -0.15130
C3594       C  0.33173111  0.75616981  0.15627269     0.07020
C3595       C  0.31252705  0.77360958  0.15091752    -0.15130
C3596       C  0.29233494  0.76656574  0.13577431    -0.15130
C3597       C  0.29142551  0.74224436  0.12557040     0.07020
C3598       C  0.31182537  0.72574752  0.12855554    -0.15130
H3599       H  0.34671122  0.71899270  0.14764809     0.11010
H3600       H  0.31214091  0.79196883  0.15991511     0.11010
H3601       H  0.27645012  0.77929926  0.13372584     0.11010
H3602       H  0.31097767  0.70670483  0.12111803     0.11010
C3603       C  0.46627438  0.75074918  0.00431033    -0.15130
C3604       C  0.48302434  0.77116868  0.00297344     0.07020
C3605       C  0.50906554  0.76619395  0.00065395    -0.15130
C3606       C  0.51833634  0.74139131  0.00162373    -0.15130
C3607       C  0.50175359  0.72115105  0.00554761     0.07020
C3608       C  0.47557119  0.72599431  0.00584055    -0.15130
H3609       H  0.44621633  0.75402546  0.00651477     0.11010
H3610       H  0.52240278  0.78167218  0.99979745     0.11010
H3611       H  0.53853743  0.73828363  0.00151582     0.11010
H3612       H  0.46232675  0.71069987  0.00881844     0.11010
C3613       C  0.47580608  0.94531142  0.10470276    -0.15130
C3614       C  0.49990255  0.94529779  0.11545971     0.07020
C3615       C  0.51600714  0.92466422  0.11199415    -0.15130
C3616       C  0.50917859  0.90554436  0.09528610    -0.15130
C3617       C  0.48628052  0.90720177  0.08200339     0.07020
C3618       C  0.46894409  0.92626069  0.08808319    -0.15130
H3619       H  0.46337933  0.96139579  0.10710762     0.11010
H3620       H  0.53487415  0.92478419  0.11987400     0.11010
H3621       H  0.52271998  0.89079756  0.09111434     0.11010
H3622       H  0.45094536  0.92759155  0.07849478     0.11010
C3623       C  0.45250296  0.82646079  0.11476382    -0.15130
C3624       C  0.43920964  0.81729798  0.09358855     0.07020
C3625       C  0.41807945  0.80192199  0.09732147    -0.15130
C3626       C  0.41099673  0.79501836  0.12171857    -0.15130
C3627       C  0.42471965  0.80363149  0.14280166     0.07020
C3628       C  0.44521764  0.81981293  0.13916287    -0.15130
H3629       H  0.46871970  0.83870276  0.11249355     0.11010
H3630       H  0.40739855  0.79481267  0.08143121     0.11010
H3631       H  0.39483785  0.78271521  0.12410793     0.11010
H3632       H  0.45602245  0.82668629  0.15507715     0.11010
C3633       C  0.24027895  0.00916651  0.96680452    -0.15130
C3634       C  0.22007401  0.00718276  0.98382095     0.07020
C3635       C  0.22547075  0.00544408  0.00978597    -0.15130
C3636       C  0.25030727  0.00753163  0.01861509    -0.15130
C3637       C  0.27028835  0.01151244  0.00168207     0.07020
C3638       C  0.26507605  0.01135846  0.97562941    -0.15130
H3639       H  0.23682912  0.01062186  0.94673031     0.11010
H3640       H  0.21034480  0.00386939  0.02343362     0.11010
H3641       H  0.25366001  0.00745580  0.03875631     0.11010
H3642       H  0.28006092  0.01415308  0.96201873     0.11010
C3643       C  0.38959105  0.90998222  0.05453108    -0.15130
C3644       C  0.38947189  0.89933881  0.03025817     0.07020
C3645       C  0.37397372  0.91033097  0.01175971    -0.15130
C3646       C  0.36023128  0.93246288  0.01693051    -0.15130
C3647       C  0.36210837  0.94437512  0.04054896     0.07020
C3648       C  0.37623762  0.93238446  0.05955296    -0.15130
H3649       H  0.40213020  0.90250752  0.06883826     0.11010
H3650       H  0.37425786  0.90307476  0.99266563     0.11010
H3651       H  0.35049421  0.94183176  0.00159464     0.11010
H3652       H  0.37898280  0.94168942  0.07753513     0.11010
C3653       C  0.40595949  0.01471903  0.11247115    -0.15130
C3654       C  0.39898988  0.03425744  0.09608140     0.07020
C3655       C  0.41211625  0.05730212  0.09707501    -0.15130
C3656       C  0.43351498  0.05988400  0.11231870    -0.15130
C3657       C  0.44244371  0.03919826  0.12617428     0.07020
C3658       C  0.42773185  0.01708996  0.12724723    -0.15130
H3659       H  0.39642395  0.99664410  0.11161637     0.11010
H3660       H  0.40719996  0.07248340  0.08428390     0.11010
H3661       H  0.44490787  0.07678294  0.11056517     0.11010
H3662       H  0.43467650  0.00064799  0.13724209     0.11010
C3663       C  0.42893014  0.08516286  0.01859582    -0.15130
C3664       C  0.40728315  0.08752696  0.00362024     0.07020
C3665       C  0.40660305  0.10528456  0.98411501    -0.15130
C3666       C  0.42855554  0.11845585  0.97778383    -0.15130
C3667       C  0.45113575  0.11385561  0.99101597     0.07020
C3668       C  0.45070714  0.09833763  0.01243139    -0.15130
H3669       H  0.42955132  0.07160625  0.03390215     0.11010
H3670       H  0.38997591  0.10717732  0.97238972     0.11010
H3671       H  0.42836168  0.13054116  0.96130903     0.11010
H3672       H  0.46769083  0.09475160  0.02321299     0.11010
C3673       C  0.22515408  0.23358478  0.01511411    -0.15130
C3674       C  0.25105804  0.23381175  0.02102536     0.07020
C3675       C  0.26862577  0.23593688  0.00132196    -0.15130
C3676       C  0.26057865  0.23555866  0.97621400    -0.15130
C3677       C  0.23479386  0.23316323  0.97029689     0.07020
C3678       C  0.21710137  0.23331985  0.99000145    -0.15130
H3679       H  0.21110392  0.23212873  0.02988000     0.11010
H3680       H  0.28868158  0.23623020  0.00522583     0.11010
H3681       H  0.27469095  0.23567152  0.96143601     0.11010
H3682       H  0.19712613  0.23152796  0.98608234     0.11010
C3683       C  0.17427105  0.22617544  0.12464739    -0.15130
C3684       C  0.19530955  0.24238859  0.12581558     0.07020
C3685       C  0.19288537  0.26599614  0.13750137    -0.15130
C3686       C  0.17094772  0.27189713  0.15059825    -0.15130
C3687       C  0.15116008  0.25440587  0.15196113     0.07020
C3688       C  0.15221210  0.23216839  0.13779324    -0.15130
H3689       H  0.17564713  0.20787819  0.11562823     0.11010
H3690       H  0.20866683  0.27897058  0.13836042     0.11010
H3691       H  0.17033871  0.28910333  0.16162547     0.11010
H3692       H  0.13716160  0.21837792  0.13900739     0.11010
C3693       C  0.26521567  0.31279112  0.11322823    -0.15130
C3694       C  0.28891521  0.30087181  0.11433470     0.07020
C3695       C  0.30818832  0.31256912  0.12834261    -0.15130
C3696       C  0.30339439  0.33466501  0.14227220    -0.15130
C3697       C  0.27911065  0.34533179  0.14280561     0.07020
C3698       C  0.26029884  0.33464815  0.12748751    -0.15130
H3699       H  0.24967938  0.30361366  0.10362712     0.11010
H3700       H  0.32624498  0.30322491  0.13053463     0.11010
H3701       H  0.31796819  0.34193167  0.15461985     0.11010
H3702       H  0.24121205  0.34193895  0.12823971     0.11010
C3703       C  0.34627200  0.18860805  0.16309541    -0.15130
C3704       C  0.34490793  0.21148970  0.14974520     0.07020
C3705       C  0.36128845  0.23122331  0.15616923    -0.15130
C3706       C  0.37641317  0.22923623  0.17771355    -0.15130
C3707       C  0.37573059  0.20729183  0.19266373     0.07020
C3708       C  0.36189931  0.18638918  0.18423003    -0.15130
H3709       H  0.33355205  0.17326034  0.15853265     0.11010
H3710       H  0.36018832  0.24915589  0.14639107     0.11010
H3711       H  0.38643806  0.24581134  0.18427483     0.11010
H3712       H  0.36050479  0.16959246  0.19582025     0.11010
C3713       C  0.22567657  0.12673906  0.17756880    -0.15130
C3714       C  0.24014750  0.13015552  0.19956824     0.07020
C3715       C  0.26272022  0.14388198  0.19832578    -0.15130
C3716       C  0.26890429  0.15682482  0.17642710    -0.15130
C3717       C  0.25273577  0.15597942  0.15555044     0.07020
C3718       C  0.23198463  0.13969751  0.15552650    -0.15130
H3719       H  0.20830134  0.11598474  0.17801388     0.11010
H3720       H  0.27446258  0.14639132  0.21485669     0.11010
H3721       H  0.28510468  0.16931740  0.17652627     0.11010
H3722       H  0.21931491  0.13905906  0.13951282     0.11010
C3723       C  0.28857431  0.12795980  0.07593083    -0.15130
C3724       C  0.30463763  0.14796329  0.06873230     0.07020
C3725       C  0.32781750  0.14221052  0.05737534    -0.15130
C3726       C  0.33397274  0.11699122  0.05187252    -0.15130
C3727       C  0.31746286  0.09716581  0.05840024     0.07020
C3728       C  0.29500382  0.10280338  0.07099140    -0.15130
H3729       H  0.27065155  0.13184271  0.08495213     0.11010
H3730       H  0.34049113  0.15719020  0.05164595     0.11010
H3731       H  0.35128777  0.11296512  0.04177108     0.11010
H3732       H  0.28185923  0.08789736  0.07579530     0.11010
C3733       C  0.10152027  0.90496749  0.93377909    -0.15130
C3734       C  0.09922219  0.89748769  0.95913017     0.07020
C3735       C  0.11198266  0.91153805  0.97762389    -0.15130
C3736       C  0.12552608  0.93337830  0.97112975    -0.15130
C3737       C  0.12604870  0.94210578  0.94609631     0.07020
C3738       C  0.11446812  0.92729956  0.92737272    -0.15130
H3739       H  0.09113697  0.89501138  0.91926888     0.11010
H3740       H  0.10990004  0.90666168  0.99735625     0.11010
H3741       H  0.13333422  0.94492049  0.98608379     0.11010
H3742       H  0.11360121  0.93411837  0.90813765     0.11010
C3743       C  0.02113087  0.85815445  0.06291240    -0.15130
C3744       C  0.04291752  0.86144544  0.04802601     0.07020
C3745       C  0.06158768  0.87821089  0.05640199    -0.15130
C3746       C  0.05706114  0.89379966  0.07725098    -0.15130
C3747       C  0.03407970  0.89240781  0.09047087     0.07020
C3748       C  0.01683616  0.87337223  0.08416240    -0.15130
H3749       H  0.00608135  0.84596285  0.05636919     0.11010
H3750       H  0.07808861  0.88177169  0.04485903     0.11010
H3751       H  0.07053357  0.90854925  0.08164928     0.11010
H3752       H  0.99883111  0.87223288  0.09377171     0.11010
C3753       C  0.15914362  0.73088628  0.84298887    -0.15130
C3754       C  0.15900832  0.75398664  0.82995515     0.07020
C3755       C  0.17717299  0.77238947  0.83562227    -0.15130
C3756       C  0.19688542  0.76668359  0.85191401    -0.15130
C3757       C  0.19836747  0.74270874  0.86287044     0.07020
C3758       C  0.17885427  0.72525535  0.85943737    -0.15130
H3759       H  0.14519941  0.71647703  0.83900143     0.11010
H3760       H  0.17712169  0.79052060  0.82615733     0.11010
H3761       H  0.21211041  0.78014056  0.85426551     0.11010
H3762       H  0.18019669  0.70645059  0.86739787     0.11010
C3763       C  0.13746976  0.70037214  0.72077088    -0.15130
C3764       C  0.12355853  0.69953463  0.74320409     0.07020
C3765       C  0.12323359  0.67753383  0.75777523    -0.15130
C3766       C  0.13965277  0.65784864  0.75186013    -0.15130
C3767       C  0.15628834  0.66022800  0.73132661     0.07020
C3768       C  0.15373083  0.68071643  0.71476038    -0.15130
H3769       H  0.13779165  0.71738378  0.70939791     0.11010
H3770       H  0.11270065  0.67683148  0.77528034     0.11010
H3771       H  0.14090070  0.64191361  0.76460305     0.11010
H3772       H  0.16584620  0.68265325  0.69841501     0.11010
C3773       C  0.10953193  0.77300482  0.67417800    -0.15130
C3774       C  0.11227480  0.79461473  0.68942116     0.07020
C3775       C  0.12907334  0.81354803  0.68168165    -0.15130
C3776       C  0.14538385  0.80931166  0.66132755    -0.15130
C3777       C  0.14470574  0.78635103  0.64802554     0.07020
C3778       C  0.12552546  0.76896915  0.65347716    -0.15130
H3779       H  0.09727714  0.75777922  0.68020498     0.11010
H3780       H  0.13213266  0.82998068  0.69346631     0.11010
H3781       H  0.16000934  0.82303454  0.65736549     0.11010
H3782       H  0.12480085  0.75103899  0.64367796     0.11010
C3783       C  0.08415054  0.79811025  0.86451587    -0.15130
C3784       C  0.06772773  0.80233725  0.84405228     0.07020
C3785       C  0.04406078  0.81297214  0.84831804    -0.15130
C3786       C  0.03651784  0.81858804  0.87281235    -0.15130
C3787       C  0.05265868  0.81401487  0.89353676     0.07020
C3788       C  0.07674731  0.80409508  0.88911351    -0.15130
H3789       H  0.10259881  0.78982555  0.86144703     0.11010
H3790       H  0.03104349  0.81598723  0.83285734     0.11010
H3791       H  0.01781173  0.82639460  0.87545499     0.11010
H3792       H  0.08963915  0.80068472  0.90458205     0.11010
C3793       C  0.90991144  0.89656446  0.97643192    -0.15130
C3794       C  0.90820372  0.90624208  0.00101899     0.07020
C3795       C  0.92538244  0.89832442  0.01951365    -0.15130
C3796       C  0.94558976  0.88295773  0.01287806    -0.15130
C3797       C  0.94848844  0.87526521  0.98784447     0.07020
C3798       C  0.93013642  0.88115793  0.96983682    -0.15130
H3799       H  0.89686371  0.90253965  0.96187993     0.11010
H3800       H  0.92413965  0.90537690  0.03864777     0.11010
H3801       H  0.96000236  0.87875122  0.02674890     0.11010
H3802       H  0.93268450  0.87576814  0.95028058     0.11010
C3803       C  0.90608481  0.93256986  0.10157305    -0.15130
C3804       C  0.89672341  0.95733809  0.09968067     0.07020
C3805       C  0.90835832  0.97636374  0.11402227    -0.15130
C3806       C  0.92993911  0.97111801  0.12852410    -0.15130
C3807       C  0.94075918  0.94686330  0.12853814     0.07020
C3808       C  0.92801557  0.92744072  0.11565637    -0.15130
H3809       H  0.89805364  0.91773282  0.09002895     0.11010
H3810       H  0.90204877  0.99574467  0.11227954     0.11010
H3811       H  0.93990400  0.98670209  0.13723919     0.11010
H3812       H  0.93648662  0.90886882  0.11432262     0.11010
C3813       C  0.87738845  0.05539979  0.06362770    -0.15130
C3814       C  0.86232677  0.04674811  0.04371791     0.07020
C3815       C  0.86054749  0.06145119  0.02166898    -0.15130
C3816       C  0.87603296  0.08262138  0.01832883    -0.15130
C3817       C  0.89369682  0.08904062  0.03688974     0.07020
C3818       C  0.89320077  0.07626448  0.06012483    -0.15130
H3819       H  0.87964086  0.04402250  0.08046440     0.11010
H3820       H  0.84960126  0.05469504  0.00578902     0.11010
H3821       H  0.87634397  0.09198079  0.00016492     0.11010
H3822       H  0.90674865  0.08095296  0.07467762     0.11010
C3823       C  0.67789504  0.71666691  0.15385955    -0.15130
C3824       C  0.65754149  0.73335769  0.15681258     0.07020
C3825       C  0.65605703  0.75506402  0.14161546    -0.15130
C3826       C  0.67632684  0.76165047  0.12618306    -0.15130
C3827       C  0.69799460  0.74655627  0.12603609     0.07020
C3828       C  0.69813238  0.72335749  0.13864975    -0.15130
H3829       H  0.67920459  0.69952211  0.16493052     0.11010
H3830       H  0.64036079  0.76805392  0.14334235     0.11010
H3831       H  0.67621109  0.77976892  0.11668406     0.11010
H3832       H  0.71488474  0.71160303  0.13861849     0.11010
C3833       C  0.77217059  0.67519648  0.11163040    -0.15130
C3834       C  0.79361480  0.69066117  0.11406150     0.07020
C3835       C  0.81321741  0.68296391  0.13003659    -0.15130
C3836       C  0.80972152  0.66239419  0.14618997    -0.15130
C3837       C  0.78688050  0.64892782  0.14601355     0.07020
C3838       C  0.76890476  0.65425482  0.12740166    -0.15130
H3839       H  0.75655356  0.68118170  0.09987730     0.11010
H3840       H  0.82959483  0.69492316  0.13269730     0.11010
H3841       H  0.82387111  0.65844288  0.16038714     0.11010
H3842       H  0.75109199  0.64422584  0.12709840     0.11010
C3843       C  0.82027367  0.84710949  0.04867413    -0.15130
C3844       C  0.80284988  0.84448748  0.06827767     0.07020
C3845       C  0.79342788  0.86616882  0.08045926    -0.15130
C3846       C  0.80048646  0.89017420  0.07243783    -0.15130
C3847       C  0.81691275  0.89284896  0.05198385     0.07020
C3848       C  0.82717385  0.87113454  0.04049909    -0.15130
H3849       H  0.82783054  0.83068450  0.03912278     0.11010
H3850       H  0.78019376  0.86457232  0.09595744     0.11010
H3851       H  0.79257127  0.90656548  0.08174961     0.11010
H3852       H  0.84029203  0.87269421  0.02490565     0.11010
C3853       C  0.01686728  0.94659927  0.88724546    -0.15130
C3854       C  0.99391176  0.94584593  0.87422199     0.07020
C3855       C  0.97951655  0.92370548  0.87404025    -0.15130
C3856       C  0.98636905  0.90363077  0.88964605    -0.15130
C3857       C  0.00762962  0.90578500  0.90535898     0.07020
C3858       C  0.02381128  0.92657476  0.90264554    -0.15130
H3859       H  0.02813026  0.96368565  0.88744316     0.11010
H3860       H  0.96161920  0.92305532  0.86419177     0.11010
H3861       H  0.97382349  0.88755519  0.89111719     0.11010
H3862       H  0.04065863  0.92840126  0.91406944     0.11010
C3863       C  0.06366912  0.01919840  0.85708518    -0.15130
C3864       C  0.04854673  0.04092444  0.85958960     0.07020
C3865       C  0.05760020  0.06117648  0.87398002    -0.15130
C3866       C  0.07943919  0.05828058  0.88855761    -0.15130
C3867       C  0.09281983  0.03532572  0.88845562     0.07020
C3868       C  0.08583067  0.01650243  0.87125814    -0.15130
H3869       H  0.05671371  0.00307789  0.84660412     0.11010
H3870       H  0.04598345  0.07778344  0.87679083     0.11010
H3871       H  0.08436997  0.07296014  0.90190630     0.11010
H3872       H  0.09554903  0.99850238  0.87117872     0.11010
C3873       C  0.89111277  0.98291215  0.90750481    -0.15130
C3874       C  0.90759818  0.00360727  0.90952685     0.07020
C3875       C  0.90503388  0.02044133  0.92979032    -0.15130
C3876       C  0.88871045  0.01476223  0.94945527    -0.15130
C3877       C  0.87469041  0.99238755  0.94888560     0.07020
C3878       C  0.87461659  0.97732036  0.92721825    -0.15130
H3879       H  0.89244511  0.96991659  0.89179295     0.11010
H3880       H  0.91704607  0.03690802  0.93144662     0.11010
H3881       H  0.88891280  0.02646382  0.96622552     0.11010
H3882       H  0.86407314  0.95979484  0.92677886     0.11010
C3883       C  0.97480648  0.12251463  0.93382946    -0.15130
C3884       C  0.95080035  0.12176750  0.94506479     0.07020
C3885       C  0.93127768  0.10899695  0.93243876    -0.15130
C3886       C  0.93603373  0.09606160  0.90976559    -0.15130
C3887       C  0.96054823  0.09514088  0.89967577     0.07020
C3888       C  0.97970012  0.10911432  0.91152025    -0.15130
H3889       H  0.99042375  0.13125824  0.94370371     0.11010
H3890       H  0.91292146  0.10716869  0.94124733     0.11010
H3891       H  0.92118150  0.08466872  0.90154897     0.11010
H3892       H  0.99890792  0.10802381  0.90459927     0.11010
C3893       C  0.76613298  0.12613930  0.67627057    -0.15130
C3894       C  0.74902682  0.12318092  0.69617799     0.07020
C3895       C  0.72512672  0.13434175  0.69484238    -0.15130
C3896       C  0.71946403  0.15086474  0.67530522    -0.15130
C3897       C  0.73776982  0.15648034  0.65703595     0.07020
C3898       C  0.76050243  0.14279242  0.65665287    -0.15130
H3899       H  0.78482983  0.11791635  0.67735388     0.11010
H3900       H  0.71185154  0.13228368  0.71026234     0.11010
H3901       H  0.70154623  0.16071432  0.67562782     0.11010
H3902       H  0.77477110  0.14658885  0.64252322     0.11010
C3903       C  0.66152639  0.14443425  0.80702770    -0.15130
C3904       C  0.64778767  0.14382560  0.78435117     0.07020
C3905       C  0.65264195  0.12445555  0.76700412    -0.15130
C3906       C  0.67320616  0.10818486  0.77073340    -0.15130
C3907       C  0.68884883  0.11078912  0.79205013     0.07020
C3908       C  0.68167385  0.12778975  0.81101006    -0.15130
H3909       H  0.65806238  0.15922504  0.82070821     0.11010
H3910       H  0.64248321  0.12375852  0.74929790     0.11010
H3911       H  0.67876794  0.09572530  0.75551064     0.11010
H3912       H  0.69376697  0.13072530  0.82722078     0.11010
C3913       C  0.86547172  0.07951270  0.79665257    -0.15130
C3914       C  0.84386848  0.06600886  0.80432198     0.07020
C3915       C  0.84672430  0.04489904  0.81990719    -0.15130
C3916       C  0.87086328  0.03676926  0.82674557    -0.15130
C3917       C  0.89255258  0.04976645  0.81831951     0.07020
C3918       C  0.88956952  0.07154271  0.80367289    -0.15130
H3919       H  0.86374737  0.09607730  0.78478337     0.11010
H3920       H  0.83042061  0.03417862  0.82600351     0.11010
H3921       H  0.87253305  0.02004054  0.83838085     0.11010
H3922       H  0.90583686  0.08204817  0.79713304     0.11010
C3923       C  0.01306637  0.72317753  0.98450668    -0.15130
C3924       C  0.98683605  0.71868107  0.98443272     0.07020
C3925       C  0.97040374  0.73929790  0.98656658    -0.15130
C3926       C  0.97996634  0.76400923  0.98623140    -0.15130
C3927       C  0.00613333  0.76853207  0.98436587     0.07020
C3928       C  0.02264791  0.74786826  0.98478375    -0.15130
H3929       H  0.02614754  0.70754822  0.98274601     0.11010
H3930       H  0.95017411  0.73640749  0.98621858     0.11010
H3931       H  0.96680840  0.77966378  0.98581423     0.11010
H3932       H  0.04280623  0.75076311  0.98303062     0.11010
C3933       C  0.97049723  0.56208307  0.90183955    -0.15130
C3934       C  0.98774645  0.58162825  0.90640485     0.07020
C3935       C  0.01012564  0.58294955  0.89220626    -0.15130
C3936       C  0.01665047  0.56312856  0.87614810    -0.15130
C3937       C  0.00075542  0.54212666  0.87426967     0.07020
C3938       C  0.97704060  0.54236462  0.88588071    -0.15130
H3939       H  0.95286458  0.56096872  0.91212558     0.11010
H3940       H  0.02357121  0.59805436  0.89520071     0.11010
H3941       H  0.03520784  0.56289125  0.86755888     0.11010
H3942       H  0.96472724  0.52606622  0.88464808     0.11010
C3943       C  0.04242326  0.60292330  0.01638448    -0.15130
C3944       C  0.04306857  0.61580300  0.99335331     0.07020
C3945       C  0.06475885  0.61512898  0.97835291    -0.15130
C3946       C  0.08435467  0.59877994  0.98470055    -0.15130
C3947       C  0.08213382  0.58318078  0.00604246     0.07020
C3948       C  0.06196085  0.58670529  0.02279134    -0.15130
H3949       H  0.02561582  0.60334295  0.02803992     0.11010
H3950       H  0.06524746  0.62482039  0.96036038     0.11010
H3951       H  0.10003250  0.59670543  0.97175481     0.11010
H3952       H  0.06019588  0.57538629  0.03971929     0.11010
C3953       C  0.92868327  0.60947696  0.05697836    -0.15130
C3954       C  0.94869364  0.62477057  0.04889020     0.07020
C3955       C  0.97044075  0.62653887  0.06401038    -0.15130
C3956       C  0.97329406  0.61109238  0.08526216    -0.15130
C3957       C  0.95463366  0.59333901  0.09126861     0.07020
C3958       C  0.93176043  0.59361682  0.07786273    -0.15130
H3959       H  0.91209232  0.60722121  0.04525408     0.11010
H3960       H  0.98640484  0.63765120  0.05769213     0.11010
H3961       H  0.99119543  0.61095089  0.09512118     0.11010
H3962       H  0.91714480  0.58000114  0.08221057     0.11010
C3963       C  0.97416906  0.76217263  0.75745240    -0.15130
C3964       C  0.96949058  0.73597674  0.75843925     0.07020
C3965       C  0.98998528  0.71933001  0.75673853    -0.15130
C3966       C  0.01475184  0.72872361  0.75633675    -0.15130
C3967       C  0.01947430  0.75491874  0.75691366     0.07020
C3968       C  0.99891540  0.77156289  0.75635971    -0.15130
H3969       H  0.95865658  0.77542530  0.75889363     0.11010
H3970       H  0.98696845  0.69913091  0.75781529     0.11010
H3971       H  0.03032722  0.71548386  0.75698447     0.11010
H3972       H  0.00198968  0.79176460  0.75721481     0.11010
C3973       C  0.91184302  0.69916869  0.86917115    -0.15130
C3974       C  0.92228351  0.68791043  0.84742841     0.07020
C3975       C  0.93935667  0.66796945  0.85006712    -0.15130
C3976       C  0.94690734  0.66032837  0.87404006    -0.15130
C3977       C  0.93734293  0.67236892  0.89574251     0.07020
C3978       C  0.91923865  0.69137289  0.89315947    -0.15130
H3979       H  0.89824483  0.71437127  0.86765265     0.11010
H3980       H  0.94745940  0.65886050  0.83366916     0.11010
H3981       H  0.96065250  0.64525735  0.87558528     0.11010
H3982       H  0.91152660  0.70078902  0.90957412     0.11010
C3983       C  0.82991196  0.64351984  0.80690858    -0.15130
C3984       C  0.84042778  0.64336142  0.78256695     0.07020
C3985       C  0.82917914  0.62809650  0.76404899    -0.15130
C3986       C  0.80708393  0.61439602  0.76935294    -0.15130
C3987       C  0.79542923  0.61612088  0.79311382     0.07020
C3988       C  0.80747237  0.63028076  0.81204283    -0.15130
H3989       H  0.83763121  0.65587787  0.82124106     0.11010
H3990       H  0.83636180  0.62834705  0.74492413     0.11010
H3991       H  0.79764007  0.60462197  0.75409133     0.11010
H3992       H  0.79834103  0.63290197  0.83013426     0.11010
C3993       C  0.87940777  0.71899809  0.67785846    -0.15130
C3994       C  0.87696381  0.69748940  0.69326979     0.07020
C3995       C  0.86142143  0.67766936  0.68518894    -0.15130
C3996       C  0.84593064  0.68081084  0.66404123    -0.15130
C3997       C  0.84626630  0.70354633  0.65033923     0.07020
C3998       C  0.86432690  0.72190661  0.65634627    -0.15130
H3999       H  0.89072538  0.73483254  0.68413246     0.11010
H4000       H  0.85862920  0.66127922  0.69710560     0.11010
H4001       H  0.83200870  0.66645518  0.65978052     0.11010
H4002       H  0.86464659  0.73972087  0.64630706     0.11010
C4003       C  0.01261600  0.26538426  0.50729182    -0.15130
C4004       C  0.98658045  0.27070372  0.50835614     0.07020
C4005       C  0.96945876  0.25052487  0.50792415    -0.15130
C4006       C  0.97824865  0.22554052  0.50861740    -0.15130
C4007       C  0.00430407  0.22024454  0.50901133     0.07020
C4008       C  0.02139745  0.24037582  0.50723799    -0.15130
H4009       H  0.02621624  0.28064306  0.50785354     0.11010
H4010       H  0.94936336  0.25406445  0.50916668     0.11010
H4011       H  0.96467427  0.21032361  0.51016240     0.11010
H4012       H  0.04152258  0.23685830  0.50789094     0.11010
C4013       C  0.96809815  0.42860814  0.58908011    -0.15130
C4014       C  0.98528794  0.40882403  0.58530019     0.07020
C4015       C  0.00712879  0.40740962  0.60028875    -0.15130
C4016       C  0.01337311  0.42739505  0.61624453    -0.15130
C4017       C  0.99777759  0.44869493  0.61714631     0.07020
C4018       C  0.97439402  0.44852032  0.60488061    -0.15130
H4019       H  0.95081657  0.42979740  0.57823687     0.11010
H4020       H  0.02046341  0.39207807  0.59799337     0.11010
H4021       H  0.03161376  0.42748816  0.62546944     0.11010
H4022       H  0.96222045  0.46496606  0.60549490     0.11010
C4023       C  0.06403901  0.37850031  0.51276000    -0.15130
C4024       C  0.04207009  0.37785663  0.49816907     0.07020
C4025       C  0.04086437  0.39130473  0.47547179    -0.15130
C4026       C  0.06029755  0.40758360  0.46881178    -0.15130
C4027       C  0.08098914  0.41074196  0.48499062     0.07020
C4028       C  0.08351786  0.39495825  0.50618515    -0.15130
H4029       H  0.06497618  0.36844252  0.53053037     0.11010
H4030       H  0.02384118  0.39099504  0.46414453     0.11010
H4031       H  0.05815444  0.41909830  0.45206286     0.11010
H4032       H  0.09953048  0.39676242  0.51873984     0.11010
C4033       C  0.92992942  0.38047826  0.43442687    -0.15130
C4034       C  0.94864572  0.36379341  0.44286147     0.07020
C4035       C  0.97042576  0.36038557  0.42804182    -0.15130
C4036       C  0.97473377  0.37555023  0.40680821    -0.15130
C4037       C  0.95751055  0.39461459  0.40051662     0.07020
C4038       C  0.93448788  0.39605111  0.41360133    -0.15130
H4039       H  0.91340335  0.38402999  0.44593775     0.11010
H4040       H  0.98547531  0.34821887  0.43465732     0.11010
H4041       H  0.99274239  0.37436816  0.39720567     0.11010
H4042       H  0.92101605  0.41077375  0.40910174     0.11010
C4043       C  0.87623890  0.40899862  0.51471183    -0.15130
C4044       C  0.89228073  0.39814610  0.53281658     0.07020
C4045       C  0.89297914  0.40880407  0.55707097    -0.15130
C4046       C  0.87956730  0.43106972  0.56245524    -0.15130
C4047       C  0.86471404  0.44282841  0.54388106     0.07020
C4048       C  0.86235665  0.43094416  0.52028937    -0.15130
H4049       H  0.87605151  0.40170345  0.49563218     0.11010
H4050       H  0.90592036  0.40140527  0.57105729     0.11010
H4051       H  0.88262382  0.44036419  0.58039093     0.11010
H4052       H  0.85198567  0.44015498  0.50527746     0.11010
C4053       C  0.97302627  0.22928550  0.73592906    -0.15130
C4054       C  0.96807783  0.25545394  0.73570241     0.07020
C4055       C  0.98841388  0.27224616  0.73785059    -0.15130
C4056       C  0.01325765  0.26313291  0.73758678    -0.15130
C4057       C  0.01822493  0.23705256  0.73581761     0.07020
C4058       C  0.99787956  0.22015306  0.73627252    -0.15130
H4059       H  0.95766442  0.21589822  0.73425216     0.11010
H4060       H  0.98521472  0.29244401  0.73746947     0.11010
H4061       H  0.02866699  0.27656706  0.73715148     0.11010
H4062       H  0.00115421  0.20003139  0.73461140     0.11010
C4063       C  0.80994360  0.27622140  0.65407163    -0.15130
C4064       C  0.83144185  0.26089871  0.65614974     0.07020
C4065       C  0.83463289  0.24046953  0.63949883    -0.15130
C4066       C  0.81491770  0.23329113  0.62364535    -0.15130
C4067       C  0.79209853  0.24651817  0.62454041     0.07020
C4068       C  0.79025977  0.26892519  0.63842464    -0.15130
H4069       H  0.80728958  0.29245424  0.66621732     0.11010
H4070       H  0.85131667  0.22868565  0.64037724     0.11010
H4071       H  0.81643337  0.21586041  0.61305600     0.11010
H4072       H  0.77263922  0.27931219  0.63911791     0.11010
C4073       C  0.83053157  0.36719473  0.72791473    -0.15130
C4074       C  0.84282376  0.35288211  0.70928085     0.07020
C4075       C  0.83314398  0.35328010  0.68460619    -0.15130
C4076       C  0.81032304  0.36576988  0.67927641    -0.15130
C4077       C  0.79711867  0.37861071  0.69837379     0.07020
C4078       C  0.80806635  0.38014146  0.72244882    -0.15130
H4079       H  0.83706534  0.36646895  0.74725593     0.11010
H4080       H  0.84165667  0.34159710  0.67014858     0.11010
H4081       H  0.80179707  0.36338586  0.66087015     0.11010
H4082       H  0.79778560  0.38896956  0.73776022     0.11010
C4083       C  0.84086528  0.20486717  0.76377696    -0.15130
C4084       C  0.85772526  0.20317380  0.74354367     0.07020
C4085       C  0.86156412  0.18003396  0.73137128    -0.15130
C4086       C  0.84650496  0.15934399  0.73769357    -0.15130
C4087       C  0.82777370  0.16181746  0.75631503     0.07020
C4088       C  0.82611332  0.18427050  0.77027760    -0.15130
H4089       H  0.83785773  0.22268791  0.77338161     0.11010
H4090       H  0.87445552  0.17862100  0.71557493     0.11010
H4091       H  0.84834301  0.14207471  0.72691291     0.11010
H4092       H  0.81218526  0.18657797  0.78505889     0.11010
C4093       C  0.91929909  0.28658720  0.62390331    -0.15130
C4094       C  0.92519603  0.30176146  0.64498564     0.07020
C4095       C  0.93749917  0.32484461  0.64127405    -0.15130
C4096       C  0.94449086  0.33220291  0.61700991    -0.15130
C4097       C  0.93897891  0.31675567  0.59613158     0.07020
C4098       C  0.92599052  0.29412347  0.59965167    -0.15130
H4099       H  0.90957112  0.26873749  0.62610269     0.11010
H4100       H  0.94198479  0.33699651  0.65706943     0.11010
H4101       H  0.95444210  0.34990688  0.61452645     0.11010
H4102       H  0.92179222  0.28192224  0.58380439     0.11010
C4103       C  0.98258520  0.01091512  0.72538967    -0.15130
C4104       C  0.98248078  0.98477882  0.72046481     0.07020
C4105       C  0.98413363  0.96788825  0.74073080    -0.15130
C4106       C  0.98344779  0.97695545  0.76554783    -0.15130
C4107       C  0.98177810  0.00304949  0.77045345     0.07020
C4108       C  0.98257468  0.01999576  0.75018957    -0.15130
H4109       H  0.98117995  0.02430062  0.71000046     0.11010
H4110       H  0.98374778  0.94770688  0.73743421     0.11010
H4111       H  0.98278260  0.96352052  0.78094281     0.11010
H4112       H  0.98102354  0.04012553  0.75346487     0.11010
C4113       C  0.01640228  0.04147721  0.60391318    -0.15130
C4114       C  0.99363543  0.04168371  0.61727482     0.07020
C4115       C  0.97850325  0.06334436  0.61736503    -0.15130
C4116       C  0.98442269  0.08338559  0.60134612    -0.15130
C4117       C  0.00550437  0.08168044  0.58534183     0.07020
C4118       C  0.02241066  0.06146622  0.58809271    -0.15130
H4119       H  0.02819741  0.02474685  0.60374378     0.11010
H4120       H  0.96071680  0.06353727  0.62745144     0.11010
H4121       H  0.97135478  0.09904227  0.59986013     0.11010
H4122       H  0.03915790  0.06003443  0.57645706     0.11010
C4123       C  0.06405486  0.96690961  0.63123225    -0.15130
C4124       C  0.04862154  0.94545297  0.62849694     0.07020
C4125       C  0.05650669  0.92603418  0.61235942    -0.15130
C4126       C  0.07731691  0.92966635  0.59650931    -0.15130
C4127       C  0.09082415  0.95250998  0.59702798     0.07020
C4128       C  0.08518673  0.97033984  0.61571613    -0.15130
H4129       H  0.05794041  0.98243283  0.64305926     0.11010
H4130       H  0.04459520  0.90966941  0.60939934     0.11010
H4131       H  0.08146194  0.91560687  0.58227179     0.11010
H4132       H  0.09516929  0.98817868  0.61628882     0.11010
C4133       C  0.89281990  0.00807294  0.58362848    -0.15130
C4134       C  0.90777719  0.98620438  0.58191277     0.07020
C4135       C  0.90396995  0.96926311  0.56195123    -0.15130
C4136       C  0.88785815  0.97567547  0.54233826    -0.15130
C4137       C  0.87526904  0.99889978  0.54266711     0.07020
C4138       C  0.87655504  0.01441974  0.56396321    -0.15130
H4139       H  0.89520465  0.02125550  0.59905691     0.11010
H4140       H  0.91484738  0.95199907  0.56051350     0.11010
H4141       H  0.88706123  0.96366086  0.52580964     0.11010
H4142       H  0.86719286  0.03261430  0.56415895     0.11010
C4143       C  0.75727185  0.98954024  0.71840549    -0.15130
C4144       C  0.75598642  0.96918334  0.73525187     0.07020
C4145       C  0.75332310  0.97421130  0.76120333    -0.15130
C4146       C  0.75351829  0.99909161  0.77028407    -0.15130
C4147       C  0.75714565  0.01932505  0.75361519     0.07020
C4148       C  0.75819149  0.01436885  0.72753675    -0.15130
H4149       H  0.75977357  0.98618972  0.69841087     0.11010
H4150       H  0.75256326  0.95877910  0.77459571     0.11010
H4151       H  0.75290639  0.00235524  0.79043549     0.11010
H4152       H  0.76103277  0.02968192  0.71428866     0.11010
C4153       C  0.86688255  0.91568871  0.70228006    -0.15130
C4154       C  0.84549828  0.92370396  0.68855168     0.07020
C4155       C  0.84885766  0.93780629  0.66651017    -0.15130
C4156       C  0.87313193  0.94473013  0.65899805    -0.15130
C4157       C  0.89434354  0.93738611  0.67325832     0.07020
C4158       C  0.89109158  0.92236519  0.69461793    -0.15130
H4159       H  0.86494836  0.90441628  0.71921665     0.11010
H4160       H  0.83279460  0.94394483  0.65547721     0.11010
H4161       H  0.87533149  0.95618086  0.64220598     0.11010
H4162       H  0.90714382  0.91657750  0.70586728     0.11010
C4163       C  0.83827934  0.81163132  0.71757794    -0.15130
C4164       C  0.83531954  0.83236747  0.73376730     0.07020
C4165       C  0.85097014  0.83468837  0.75504611    -0.15130
C4166       C  0.86662893  0.81471613  0.76200463    -0.15130
C4167       C  0.86654428  0.79254778  0.74768485     0.07020
C4168       C  0.85374190  0.79169717  0.72463238    -0.15130
H4169       H  0.82691471  0.80971501  0.70070916     0.11010
H4170       H  0.84933121  0.85075342  0.76757657     0.11010
H4171       H  0.87634595  0.81542023  0.77996438     0.11010
H4172       H  0.85365855  0.77456780  0.71343995     0.11010
C4173       C  0.80484144  0.83207675  0.64010564    -0.15130
C4174       C  0.77991033  0.84096817  0.64195249     0.07020
C4175       C  0.76091318  0.82841908  0.62842047    -0.15130
C4176       C  0.76640397  0.80644850  0.61470124    -0.15130
C4177       C  0.79087209  0.79620900  0.61474016     0.07020
C4178       C  0.81022003  0.80968827  0.62687985    -0.15130
H4179       H  0.81964365  0.84088383  0.65110617     0.11010
H4180       H  0.74144583  0.83441959  0.63019465     0.11010
H4181       H  0.75095443  0.79588736  0.60646275     0.11010
H4182       H  0.82897277  0.80164616  0.62816457     0.11010
C4183       C  0.67704506  0.87754437  0.72102352    -0.15130
C4184       C  0.69191983  0.87511089  0.69915294     0.07020
C4185       C  0.68361958  0.85907907  0.67983237    -0.15130
C4186       C  0.66277946  0.84330801  0.68371393    -0.15130
C4187       C  0.64958938  0.84379227  0.70671932     0.07020
C4188       C  0.65583169  0.86215326  0.72468637    -0.15130
H4189       H  0.68354328  0.88918908  0.73651068     0.11010
H4190       H  0.69516643  0.85624273  0.66320062     0.11010
H4191       H  0.65828858  0.82919997  0.66962429     0.11010
H4192       H  0.64617128  0.86261079  0.74268600     0.11010
C4193       C  0.51246249  0.01333346  0.26523778    -0.15130
C4194       C  0.50957429  0.98738001  0.27049293     0.07020
C4195       C  0.50414859  0.97093842  0.25048216    -0.15130
C4196       C  0.50386448  0.97995267  0.22554910    -0.15130
C4197       C  0.50818929  0.00567690  0.22022880     0.07020
C4198       C  0.51148312  0.02243067  0.24040683    -0.15130
H4199       H  0.51672915  0.02645967  0.28031149     0.11010
H4200       H  0.50210896  0.95088035  0.25389777     0.11010
H4201       H  0.50164205  0.96658686  0.21025099     0.11010
H4202       H  0.51538426  0.04219192  0.23684634     0.11010
C4203       C  0.59903907  0.97445589  0.45194574    -0.15130
C4204       C  0.61449967  0.99584096  0.45062923     0.07020
C4205       C  0.61661658  0.00931637  0.42803728    -0.15130
C4206       C  0.60069852  0.00343636  0.40794161    -0.15130
C4207       C  0.58277198  0.98403373  0.41050888     0.07020
C4208       C  0.58331635  0.96846729  0.43190941    -0.15130
H4209       H  0.59735398  0.96389160  0.46937844     0.11010
H4210       H  0.62838447  0.02600948  0.42693649     0.11010
H4211       H  0.60094554  0.01538835  0.39137090     0.11010
H4212       H  0.57016390  0.95295521  0.43406553     0.11010
C4213       C  0.51837193  0.06648789  0.37453001    -0.15130
C4214       C  0.50183299  0.04604616  0.37211165     0.07020
C4215       C  0.47771633  0.04714532  0.38279751    -0.15130
C4216       C  0.47132395  0.06706460  0.39855335    -0.15130
C4217       C  0.48912182  0.08592256  0.40381111     0.07020
C4218       C  0.51199256  0.08651420  0.39037970    -0.15130
H4219       H  0.53721212  0.06558117  0.36662678     0.11010
H4220       H  0.46488743  0.03129354  0.38110369     0.11010
H4221       H  0.45332342  0.06657183  0.40823641     0.11010
H4222       H  0.52587324  0.10109427  0.39393739     0.11010
C4223       C  0.42582925  0.97518660  0.36163515    -0.15130
C4224       C  0.44050389  0.95305008  0.36282303     0.07020
C4225       C  0.43182277  0.93272799  0.37738070    -0.15130
C4226       C  0.41085361  0.93577116  0.39316637    -0.15130
C4227       C  0.39786184  0.95890434  0.39401495     0.07020
C4228       C  0.40445384  0.97799751  0.37694034    -0.15130
H4229       H  0.43255962  0.99136211  0.35107845     0.11010
H4230       H  0.44317137  0.91580188  0.37920391     0.11010
H4231       H  0.40614837  0.92086307  0.40634717     0.11010
H4232       H  0.39496237  0.99611011  0.37756067     0.11010
C4233       C  0.50590708  0.88420049  0.41526522    -0.15130
C4234       C  0.52550842  0.89567114  0.40158464     0.07020
C4235       C  0.55044280  0.89249908  0.41015753    -0.15130
C4236       C  0.55539639  0.87984955  0.43302659    -0.15130
C4237       C  0.53557625  0.86954878  0.44736491     0.07020
C4238       C  0.51092391  0.87105670  0.43770087    -0.15130
H4239       H  0.48647542  0.88699998  0.40956073     0.11010
H4240       H  0.56579817  0.90194898  0.40052064     0.11010
H4241       H  0.57440168  0.87995059  0.44052652     0.11010
H4242       H  0.49520231  0.86414229  0.44879044     0.11010
C4243       C  0.74624202  0.98305725  0.24748092    -0.15130
C4244       C  0.72431300  0.97198041  0.25767362     0.07020
C4245       C  0.70182990  0.98582592  0.25756658    -0.15130
C4246       C  0.70092641  0.01001754  0.24750199    -0.15130
C4247       C  0.72247818  0.02135856  0.23691361     0.07020
C4248       C  0.74530568  0.00766585  0.23702159    -0.15130
H4249       H  0.76368984  0.97243991  0.24681489     0.11010
H4250       H  0.68458017  0.97756756  0.26485291     0.11010
H4251       H  0.68293904  0.01975033  0.24765721     0.11010
H4252       H  0.76224478  0.01593230  0.22914109     0.11010
C4253       C  0.76693513  0.85230513  0.19987017    -0.15130
C4254       C  0.74430614  0.86596545  0.19922742     0.07020
C4255       C  0.72924433  0.86551957  0.17757404    -0.15130
C4256       C  0.73505973  0.84880226  0.15808649    -0.15130
C4257       C  0.75595149  0.83257001  0.16031186     0.07020
C4258       C  0.77278259  0.83569284  0.18047185    -0.15130
H4259       H  0.77866340  0.85247234  0.21661520     0.11010
H4260       H  0.71153968  0.87574609  0.17703533     0.11010
H4261       H  0.72205679  0.84705741  0.14243432     0.11010
H4262       H  0.78938485  0.82388855  0.18228578     0.11010
C4263       C  0.65622031  0.80890410  0.27171834    -0.15130
C4264       C  0.65882120  0.82965771  0.25551456     0.07020
C4265       C  0.64237678  0.83231421  0.23486488    -0.15130
C4266       C  0.62586700  0.81280412  0.22865464    -0.15130
C4267       C  0.62585767  0.79071967  0.24308531     0.07020
C4268       C  0.63984179  0.78945717  0.26544640    -0.15130
H4269       H  0.66820379  0.80674431  0.28812411     0.11010
H4270       H  0.64369511  0.84845119  0.22238483     0.11010
H4271       H  0.61532628  0.81379360  0.21117883     0.11010
H4272       H  0.63994173  0.77234740  0.27667656     0.11010
C4273       C  0.72951043  0.83072401  0.36356698    -0.15130
C4274       C  0.71056805  0.84228519  0.34908313     0.07020
C4275       C  0.68604156  0.83220782  0.34988748    -0.15130
C4276       C  0.68110845  0.80975083  0.36317077    -0.15130
C4277       C  0.70046850  0.79730539  0.37636805     0.07020
C4278       C  0.72443884  0.80862201  0.37728592    -0.15130
H4279       H  0.74873718  0.83760239  0.36257154     0.11010
H4280       H  0.67135847  0.84018580  0.33811245     0.11010
H4281       H  0.66280739  0.80086270  0.36118445     0.11010
H4282       H  0.73996325  0.79886232  0.38633702     0.11010
C4283       C  0.62141867  0.91146879  0.29015275    -0.15130
C4284       C  0.64310462  0.91994819  0.30309233     0.07020
C4285       C  0.64021931  0.93436701  0.32498958    -0.15130
C4286       C  0.61618136  0.94143512  0.33294945    -0.15130
C4287       C  0.59463829  0.93413086  0.31920712     0.07020
C4288       C  0.59734867  0.91845292  0.29820791    -0.15130
H4289       H  0.62303235  0.89994733  0.27335681     0.11010
H4290       H  0.65650279  0.94081247  0.33550761     0.11010
H4291       H  0.61446385  0.95331253  0.34949853     0.11010
H4292       H  0.58103214  0.91264049  0.28736919     0.11010
C4293       C  0.72429358  0.98106709  0.01113052    -0.15130
C4294       C  0.71995276  0.98134767  0.98489778     0.07020
C4295       C  0.74065163  0.98373812  0.96861920    -0.15130
C4296       C  0.76528983  0.98356134  0.97831700    -0.15130
C4297       C  0.76965958  0.98171042  0.00447740     0.07020
C4298       C  0.74890841  0.98156524  0.02085223    -0.15130
H4299       H  0.70860816  0.97913536  0.02409759     0.11010
H4300       H  0.73788277  0.98368715  0.94838608     0.11010
H4301       H  0.78103563  0.98344488  0.96528019     0.11010
H4302       H  0.75172330  0.97970705  0.04099586     0.11010
C4303       C  0.58140068  0.89264797  0.00031533    -0.15130
C4304       C  0.57875415  0.91095598  0.98128991     0.07020
C4305       C  0.55738677  0.91056825  0.96568987    -0.15130
C4306       C  0.53750282  0.89444051  0.97120946    -0.15130
C4307       C  0.53891864  0.87844527  0.99218065     0.07020
C4308       C  0.56146191  0.87634435  0.00572850    -0.15130
H4309       H  0.59796434  0.89225631  0.01226477     0.11010
H4310       H  0.55517031  0.92402485  0.95046050     0.11010
H4311       H  0.52008482  0.89616397  0.96062971     0.11010
H4312       H  0.56262069  0.86420894  0.02213907     0.11010
C4313       C  0.61605249  0.97550649  0.06297354    -0.15130
C4314       C  0.61738908  0.99203198  0.04240691     0.07020
C4315       C  0.60568860  0.01567633  0.04359638    -0.15130
C4316       C  0.58998336  0.02144829  0.06372873    -0.15130
C4317       C  0.58568561  0.00345235  0.08266461     0.07020
C4318       C  0.60015729  0.98121909  0.08317132    -0.15130
H4319       H  0.62483566  0.95704807  0.06206088     0.11010
H4320       H  0.60662896  0.02854658  0.02772599     0.11010
H4321       H  0.57954152  0.03903740  0.06331798     0.11010
H4322       H  0.59738898  0.96723804  0.09782238     0.11010
C4323       C  0.63232332  0.06671495  0.96846405    -0.15130
C4324       C  0.63042884  0.05131678  0.94688876     0.07020
C4325       C  0.61545428  0.05958547  0.92672203    -0.15130
C4326       C  0.59983586  0.08074678  0.92957223    -0.15130
C4327       C  0.59948951  0.09435141  0.95236147     0.07020
C4328       C  0.61713014  0.08825363  0.97108930    -0.15130
H4329       H  0.64323182  0.06037268  0.98453956     0.11010
H4330       H  0.61307991  0.04774460  0.91022991     0.11010
H4331       H  0.58625866  0.08502719  0.91491121     0.11010
H4332       H  0.61697468  0.09819065  0.98894084     0.11010
C4333       C  0.76086915  0.75441971  0.97730058    -0.15130
C4334       C  0.73470788  0.75615765  0.97279837     0.07020
C4335       C  0.71815879  0.75572492  0.99339555    -0.15130
C4336       C  0.72771808  0.75600598  0.01805289    -0.15130
C4337       C  0.75394687  0.75609543  0.02253390     0.07020
C4338       C  0.77040719  0.75406284  0.00196013    -0.15130
H4339       H  0.77402429  0.75486619  0.96166276     0.11010
H4340       H  0.69799937  0.75738361  0.99046534     0.11010
H4341       H  0.71462738  0.75768181  0.03366210     0.11010
H4342       H  0.79063638  0.75442422  0.00485434     0.11010
C4343       C  0.69970508  0.86711902  0.91255079    -0.15130
C4344       C  0.68769520  0.84570769  0.92293615     0.07020
C4345       C  0.66657033  0.84909185  0.93838825    -0.15130
C4346       C  0.65847105  0.87342067  0.94445029    -0.15130
C4347       C  0.67121176  0.89482223  0.93501596     0.07020
C4348       C  0.69146277  0.89146800  0.91845542    -0.15130
H4349       H  0.71582758  0.86508366  0.90015519     0.11010
H4350       H  0.65679706  0.83301073  0.94638054     0.11010
H4351       H  0.64253575  0.87550024  0.95708961     0.11010
H4352       H  0.70155458  0.90758945  0.91095407     0.11010
C4353       C  0.81380084  0.76212675  0.86802905    -0.15130
C4354       C  0.79304976  0.74583081  0.86946157     0.07020
C4355       C  0.79338225  0.72283850  0.85647090    -0.15130
C4356       C  0.81277139  0.71762001  0.83963670    -0.15130
C4357       C  0.83191249  0.73546933  0.83556848     0.07020
C4358       C  0.83326686  0.75695498  0.85106229    -0.15130
H4359       H  0.81350454  0.78016249  0.87767539     0.11010
H4360       H  0.77729983  0.71021819  0.85732197     0.11010
H4361       H  0.81167223  0.70058079  0.82839201     0.11010
H4362       H  0.84810231  0.77078961  0.84852855     0.11010
C4363       C  0.67635810  0.68250680  0.86473702    -0.15130
C4364       C  0.69603765  0.69026802  0.88059646     0.07020
C4365       C  0.71747057  0.67470990  0.88290501    -0.15130
C4366       C  0.72057397  0.65360231  0.86725440    -0.15130
C4367       C  0.70244353  0.64809681  0.84882970     0.07020
C4368       C  0.67966978  0.66174016  0.84873293    -0.15130
H4369       H  0.66000498  0.69450548  0.86207261     0.11010
H4370       H  0.73319852  0.68071084  0.89449492     0.11010
H4371       H  0.73837788  0.64354800  0.86749733     0.11010
H4372       H  0.66540318  0.65776214  0.83466784     0.11010
C4373       C  0.62976478  0.75830383  0.83083680    -0.15130
C4374       C  0.64216144  0.77791644  0.84364358     0.07020
C4375       C  0.63861390  0.80284081  0.83519180    -0.15130
C4376       C  0.62482557  0.80773319  0.81300703    -0.15130
C4377       C  0.61381694  0.78786274  0.79926972     0.07020
C4378       C  0.61552844  0.76326200  0.80908816    -0.15130
H4379       H  0.63276092  0.73887663  0.83651288     0.11010
H4380       H  0.64865174  0.81819593  0.84421014     0.11010
H4381       H  0.62480293  0.82667972  0.80531329     0.11010
H4382       H  0.60817309  0.74747160  0.79837854     0.11010
C4383       C  0.76506881  0.83833416  0.83096968    -0.15130
C4384       C  0.74022964  0.82946550  0.83335263     0.07020
C4385       C  0.72145062  0.83814571  0.81687692    -0.15130
C4386       C  0.72788992  0.85383493  0.79684600    -0.15130
C4387       C  0.75304216  0.86098822  0.79337706     0.07020
C4388       C  0.77148336  0.85397086  0.81088985    -0.15130
H4389       H  0.77983517  0.83165761  0.84343273     0.11010
H4390       H  0.70215327  0.83162710  0.81864508     0.11010
H4391       H  0.71368935  0.85879140  0.78300636     0.11010
H4392       H  0.79112177  0.85881572  0.80781779     0.11010
C4393       C  0.76818711  0.33914554  0.81449465    -0.15130
C4394       C  0.75097088  0.33828207  0.83453179     0.07020
C4395       C  0.72920191  0.35318692  0.83390588    -0.15130
C4396       C  0.72329466  0.36659955  0.81199802    -0.15130
C4397       C  0.73915611  0.36500091  0.79073171     0.07020
C4398       C  0.76240061  0.35254294  0.79274158    -0.15130
H4399       H  0.78510463  0.32765421  0.81484164     0.11010
H4400       H  0.71567995  0.35245026  0.84921523     0.11010
H4401       H  0.70530713  0.37625856  0.81095153     0.11010
H4402       H  0.77513502  0.35136289  0.77679603     0.11010
C4403       C  0.86404792  0.26991982  0.83427843    -0.15130
C4404       C  0.84546292  0.28767263  0.84052105     0.07020
C4405       C  0.84508725  0.31098141  0.82782527    -0.15130
C4406       C  0.86099972  0.31525135  0.80720432    -0.15130
C4407       C  0.87701710  0.29601441  0.79864571     0.07020
C4408       C  0.87961533  0.27400051  0.81330136    -0.15130
H4409       H  0.86446836  0.25172091  0.84359843     0.11010
H4410       H  0.83083872  0.32493643  0.83236321     0.11010
H4411       H  0.85811059  0.33202683  0.79585673     0.11010
H4412       H  0.89131326  0.25860680  0.80661872     0.11010
C4413       C  0.67550912  0.26349240  0.86555760    -0.15130
C4414       C  0.69747571  0.24880762  0.86257946     0.07020
C4415       C  0.69642205  0.22652994  0.84835595    -0.15130
C4416       C  0.67494535  0.22096630  0.83448240    -0.15130
C4417       C  0.65421114  0.23736914  0.83497310     0.07020
C4418       C  0.65383203  0.25774553  0.85172224    -0.15130
H4419       H  0.67580344  0.28067263  0.87662731     0.11010
H4420       H  0.71291048  0.21463635  0.84610688     0.11010
H4421       H  0.67530332  0.20501002  0.82169782     0.11010
H4422       H  0.63788569  0.27054189  0.85217803     0.11010
C4423       C  0.80756786  0.18303647  0.85452671    -0.15130
C4424       C  0.79035376  0.19373580  0.87166405     0.07020
C4425       C  0.76779632  0.18066751  0.87669736    -0.15130
C4426       C  0.76177853  0.15841993  0.86344420    -0.15130
C4427       C  0.77850622  0.14850099  0.84540797     0.07020
C4428       C  0.80183621  0.16053820  0.84176781    -0.15130
H4429       H  0.82455607  0.19322324  0.84944326     0.11010
H4430       H  0.75369251  0.18904336  0.88889536     0.11010
H4431       H  0.74333352  0.14998343  0.86596068     0.11010
H4432       H  0.81465595  0.15380708  0.82732634     0.11010
C4433       C  0.92362995  0.40086638  0.97131469    -0.15130
C4434       C  0.90312010  0.40015159  0.98799448     0.07020
C4435       C  0.90322651  0.38330845  0.00829051    -0.15130
C4436       C  0.92512729  0.36963162  0.01366152    -0.15130
C4437       C  0.94689092  0.37289159  0.99873334     0.07020
C4438       C  0.94537644  0.38720148  0.97655627    -0.15130
H4439       H  0.92364060  0.41375653  0.95544227     0.11010
H4440       H  0.88750372  0.38270273  0.02133886     0.11010
H4441       H  0.92575195  0.35847612  0.03076844     0.11010
H4442       H  0.96169484  0.38968589  0.96449588     0.11010
C4443       C  0.90537162  0.47463627  0.88026503    -0.15130
C4444       C  0.89837112  0.45525813  0.89683232     0.07020
C4445       C  0.91112932  0.43200611  0.89568955    -0.15130
C4446       C  0.93225173  0.42905354  0.88010539    -0.15130
C4447       C  0.94125051  0.44955262  0.86601402     0.07020
C4448       C  0.92686802  0.47188872  0.86513976    -0.15130
H4449       H  0.89608926  0.49284509  0.88118091     0.11010
H4450       H  0.90611905  0.41690019  0.90852904     0.11010
H4451       H  0.94340063  0.41197102  0.88168796     0.11010
H4452       H  0.93388128  0.48818391  0.85495620     0.11010
C4453       C  0.88566973  0.51125484  0.04807948    -0.15130
C4454       C  0.87396391  0.48763479  0.04591017     0.07020
C4455       C  0.87286359  0.47155738  0.06703562    -0.15130
C4456       C  0.88625440  0.47762594  0.08888780    -0.15130
C4457       C  0.90056840  0.49978613  0.08958891     0.07020
C4458       C  0.89900679  0.51722489  0.06979584    -0.15130
H4459       H  0.88643472  0.52413537  0.03222126     0.11010
H4460       H  0.86379799  0.45326909  0.06583679     0.11010
H4461       H  0.88759084  0.46391243  0.10399168     0.11010
H4462       H  0.91010952  0.53439348  0.07018079     0.11010
C4463       C  0.87859009  0.55703189  0.93253665    -0.15130
C4464       C  0.86452014  0.54580650  0.95204145     0.07020
C4465       C  0.86337666  0.55821003  0.97545622    -0.15130
C4466       C  0.87757425  0.58020664  0.97985866    -0.15130
C4467       C  0.89284605  0.59052745  0.96079535     0.07020
C4468       C  0.89243416  0.57927539  0.93680335    -0.15130
H4469       H  0.88079939  0.54728867  0.91470975     0.11010
H4470       H  0.85371549  0.54938451  0.99116222     0.11010
H4471       H  0.87828507  0.58794063  0.99875335     0.11010
H4472       H  0.90480547  0.58623166  0.92208796     0.11010
C4473       C  0.82529005  0.37406147  0.95086880    -0.15130
C4474       C  0.81634254  0.39435375  0.93615156     0.07020
C4475       C  0.80301363  0.38923891  0.91395980    -0.15130
C4476       C  0.79741110  0.36419989  0.90748379    -0.15130
C4477       C  0.80577603  0.34403097  0.92265103     0.07020
C4478       C  0.82027255  0.34907206  0.94403471    -0.15130
H4479       H  0.83579588  0.37757478  0.96801818     0.11010
H4480       H  0.79593200  0.40453413  0.90239602     0.11010
H4481       H  0.78596044  0.36054877  0.89096526     0.11010
H4482       H  0.82658317  0.33380487  0.95607924     0.11010
C4483       C  0.98887800  0.58420976  0.38374796    -0.15130
C4484       C  0.00708975  0.58389501  0.40279043     0.07020
C4485       C  0.02364886  0.56333101  0.40486988    -0.15130
C4486       C  0.02001375  0.54186812  0.39024208    -0.15130
C4487       C  0.99941592  0.54060432  0.37372947     0.07020
C4488       C  0.98501981  0.56255151  0.36920960    -0.15130
H4489       H  0.97606702  0.60004539  0.38188936     0.11010
H4490       H  0.03807034  0.56304268  0.41934196     0.11010
H4491       H  0.03165522  0.52543825  0.39384082     0.11010
H4492       H  0.96917932  0.56219529  0.35631661     0.11010
C4493       C  0.11496006  0.58733679  0.47242227    -0.15130
C4494       C  0.09627670  0.59333780  0.45473337     0.07020
C4495       C  0.09627787  0.58092332  0.43130686    -0.15130
C4496       C  0.11261252  0.56064629  0.42687038    -0.15130
C4497       C  0.12865144  0.55212433  0.44607190     0.07020
C4498       C  0.13099307  0.56671876  0.46814948    -0.15130
H4499       H  0.11511211  0.59647264  0.49069629     0.11010
H4500       H  0.08196752  0.58531562  0.41739408     0.11010
H4501       H  0.10994216  0.54937657  0.41002741     0.11010
H4502       H  0.14273058  0.56008305  0.48351073     0.11010
C4503       C  0.92474512  0.61403412  0.47475627    -0.15130
C4504       C  0.94618792  0.61283350  0.49041258     0.07020
C4505       C  0.94412678  0.60179743  0.51434056    -0.15130
C4506       C  0.92201261  0.58947040  0.52122624    -0.15130
C4507       C  0.90170468  0.58805907  0.50433898     0.07020
C4508       C  0.90253762  0.60157211  0.48169050    -0.15130
H4509       H  0.92582032  0.62259862  0.45624024     0.11010
H4510       H  0.96020794  0.60096095  0.52692166     0.11010
H4511       H  0.92161366  0.57895988  0.53875975     0.11010
H4512       H  0.88713814  0.60029445  0.46832190     0.11010
C4513       C  0.00736107  0.61280645  0.58064044    -0.15130
C4514       C  0.02620841  0.59920089  0.59342978     0.07020
C4515       C  0.05105899  0.60036178  0.58415232    -0.15130
C4516       C  0.05649265  0.61312807  0.56147537    -0.15130
C4517       C  0.03733620  0.62558868  0.54795163     0.07020
C4518       C  0.01292240  0.62607932  0.55834934    -0.15130
H4519       H  0.98791355  0.61151538  0.58681043     0.11010
H4520       H  0.06574943  0.58922309  0.59299672     0.11010
H4521       H  0.07518014  0.61139978  0.55337260     0.11010
H4522       H  0.99755179  0.63449293  0.54781553     0.11010
C4523       C  0.15533171  0.76037435  0.35296465    -0.15130
C4524       C  0.15531307  0.73874411  0.33785624     0.07020
C4525       C  0.17586842  0.72211203  0.33845932    -0.15130
C4526       C  0.19758477  0.72855514  0.35159754    -0.15130
C4527       C  0.19898966  0.75185004  0.36405780     0.07020
C4528       C  0.17719712  0.76694199  0.36610558    -0.15130
H4529       H  0.13955703  0.77338540  0.35252461     0.11010
H4530       H  0.17591014  0.70519948  0.32694605     0.11010
H4531       H  0.21393666  0.71635776  0.35014378     0.11010
H4532       H  0.17775431  0.78490447  0.37584957     0.11010
C4533       C  0.15890194  0.64267621  0.30986674    -0.15130
C4534       C  0.14621140  0.64319947  0.28659538     0.07020
C4535       C  0.15329863  0.62615555  0.26768894    -0.15130
C4536       C  0.17511305  0.61154574  0.27067849    -0.15130
C4537       C  0.18972722  0.61355425  0.29274161     0.07020
C4538       C  0.18038488  0.62766307  0.31304106    -0.15130
H4539       H  0.15381313  0.65590256  0.32460741     0.11010
H4540       H  0.14403903  0.62656815  0.24948346     0.11010
H4541       H  0.18233408  0.60123586  0.25456828     0.11010
H4542       H  0.19164014  0.63002060  0.32993227     0.11010
C4543       C  0.12603850  0.81444980  0.26239292    -0.15130
C4544       C  0.13017080  0.79181550  0.24904099     0.07020
C4545       C  0.14679559  0.79182634  0.22845227    -0.15130
C4546       C  0.16119238  0.81308169  0.22320376    -0.15130
C4547       C  0.15890440  0.83481297  0.23810990     0.07020
C4548       C  0.14033824  0.83597805  0.25684982    -0.15130
H4549       H  0.11320904  0.81498139  0.27828244     0.11010
H4550       H  0.15016166  0.77482961  0.21759016     0.11010
H4551       H  0.17528585  0.81204430  0.20842158     0.11010
H4552       H  0.13839050  0.85268074  0.26847401     0.11010
C4553       C  0.12751341  0.68145053  0.18137219    -0.15130
C4554       C  0.11424233  0.70053927  0.19420533     0.07020
C4555       C  0.11324561  0.72472841  0.18332247    -0.15130
C4556       C  0.12686345  0.73021552  0.16123814    -0.15130
C4557       C  0.14126212  0.71147071  0.14919074     0.07020
C4558       C  0.14060831  0.68677896  0.15890434    -0.15130
H4559       H  0.12957825  0.66297318  0.18989427     0.11010
H4560       H  0.10417707  0.74006520  0.19336748     0.11010
H4561       H  0.12771820  0.74955897  0.15464601     0.11010
H4562       H  0.15229316  0.67221402  0.15055708     0.11010
C4563       C  0.08034215  0.69602508  0.36579745    -0.15130
C4564       C  0.06603480  0.68630915  0.34560092     0.07020
C4565       C  0.04626625  0.66961617  0.35069647    -0.15130
C4566       C  0.04009917  0.66371730  0.37568285    -0.15130
C4567       C  0.05400873  0.67382932  0.39598453     0.07020
C4568       C  0.07464160  0.68950879  0.39082357    -0.15130
H4569       H  0.09571943  0.70900150  0.36217700     0.11010
H4570       H  0.03493824  0.66206751  0.33546625     0.11010
H4571       H  0.02409972  0.65149560  0.37920315     0.11010
H4572       H  0.08552753  0.69760434  0.40608986     0.11010
C4573       C  0.73785937  0.48091208  0.02368577    -0.15130
C4574       C  0.71827384  0.48162800  0.00586629     0.07020
C4575       C  0.72455506  0.48359840  0.98014302    -0.15130
C4576       C  0.74978382  0.48302685  0.97231404    -0.15130
C4577       C  0.76929450  0.48029265  0.99002273     0.07020
C4578       C  0.76308520  0.48017028  0.01584948    -0.15130
H4579       H  0.73368615  0.47932073  0.04361575     0.11010
H4580       H  0.70990607  0.48428030  0.96592485     0.11010
H4581       H  0.75388731  0.48320016  0.95230950     0.11010
H4582       H  0.77766707  0.47818542  0.03001559     0.11010
C4583       C  0.60322349  0.48464234  0.90486086    -0.15130
C4584       C  0.58696213  0.50543375  0.90461854     0.07020
C4585       C  0.58669103  0.52223480  0.92503445    -0.15130
C4586       C  0.60015341  0.51669483  0.94681217    -0.15130
C4587       C  0.61378161  0.49406810  0.94848598     0.07020
C4588       C  0.61668178  0.47896069  0.92680480    -0.15130
H4589       H  0.60347548  0.47148062  0.88922853     0.11010
H4590       H  0.57422410  0.53845488  0.92497740     0.11010
H4591       H  0.59795109  0.52890498  0.96305481     0.11010
H4592       H  0.62732131  0.46151287  0.92753748     0.11010
C4593       C  0.61412600  0.56329531  0.06038029    -0.15130
C4594       C  0.62504583  0.54926530  0.04067577     0.07020
C4595       C  0.62385873  0.55908740  0.01608120    -0.15130
C4596       C  0.61011028  0.58113774  0.01094030    -0.15130
C4597       C  0.59770327  0.59422072  0.03036527     0.07020
C4598       C  0.60083279  0.58576457  0.05530751    -0.15130
H4599       H  0.61376454  0.55562135  0.07930888     0.11010
H4600       H  0.63114192  0.54815947  0.00040829     0.11010
H4601       H  0.60735482  0.58677105  0.99149223     0.11010
H4602       H  0.59071732  0.59496204  0.07050304     0.11010
C4603       C  0.58212758  0.38924539  0.98305141    -0.15130
C4604       C  0.58176709  0.40645968  0.00305063     0.07020
C4605       C  0.56051126  0.40801779  0.01871124    -0.15130
C4606       C  0.53882950  0.39448837  0.01297561    -0.15130
C4607       C  0.53799739  0.37945831  0.99123084     0.07020
C4608       C  0.56022538  0.37574800  0.97711563    -0.15130
H4609       H  0.59839678  0.38800803  0.97074232     0.11010
H4610       H  0.56005386  0.42122176  0.03431434     0.11010
H4611       H  0.52214559  0.39742023  0.02442591     0.11010
H4612       H  0.56011143  0.36409618  0.96033785     0.11010
C4613       C  0.58255522  0.47377751  0.11547644    -0.15130
C4614       C  0.58769423  0.45638021  0.09623617     0.07020
C4615       C  0.57382412  0.43378277  0.09523685    -0.15130
C4616       C  0.55331759  0.42992088  0.11140278    -0.15130
C4617       C  0.54595646  0.44893090  0.12827216     0.07020
C4618       C  0.56161754  0.47018390  0.13124386    -0.15130
H4619       H  0.59282620  0.49143391  0.11641021     0.11010
H4620       H  0.57750167  0.42010272  0.08049532     0.11010
H4621       H  0.54115734  0.41378660  0.10818039     0.11010
H4622       H  0.55585550  0.48545228  0.14356346     0.11010
C4623       C  0.76304571  0.25800224  0.01347466    -0.15130
C4624       C  0.73729483  0.25957346  0.01987570     0.07020
C4625       C  0.71934106  0.25883379  0.00040173    -0.15130
C4626       C  0.72700279  0.25860982  0.97511258    -0.15130
C4627       C  0.75279680  0.25894876  0.96870330     0.07020
C4628       C  0.77070347  0.25760630  0.98818689    -0.15130
H4629       H  0.77739092  0.25842018  0.02800713     0.11010
H4630       H  0.69938162  0.26001340  0.00463407     0.11010
H4631       H  0.71268927  0.25953380  0.96057023     0.11010
H4632       H  0.79069454  0.25786896  0.98394663     0.11010
C4633       C  0.76157073  0.35471268  0.15427034    -0.15130
C4634       C  0.73998150  0.33955148  0.15353384     0.07020
C4635       C  0.72287459  0.33999844  0.17369533    -0.15130
C4636       C  0.72859169  0.35321375  0.19559223    -0.15130
C4637       C  0.75169110  0.36592245  0.19768112     0.07020
C4638       C  0.76741672  0.36794312  0.17633250    -0.15130
H4639       H  0.77505156  0.35429551  0.13891392     0.11010
H4640       H  0.70614598  0.32825596  0.17334802     0.11010
H4641       H  0.71596344  0.35163500  0.21158655     0.11010
H4642       H  0.78530347  0.37777108  0.17741407     0.11010
C4643       C  0.64691422  0.31187892  0.16248501    -0.15130
C4644       C  0.64627990  0.28876613  0.14945259     0.07020
C4645       C  0.62724577  0.27132640  0.15522113    -0.15130
C4646       C  0.61132982  0.27551996  0.17594254    -0.15130
C4647       C  0.61396917  0.29736903  0.19085650     0.07020
C4648       C  0.63066090  0.31628032  0.18284602    -0.15130
H4649       H  0.66142638  0.32564463  0.15826757     0.11010
H4650       H  0.62656498  0.25328353  0.14562592     0.11010
H4651       H  0.59916417  0.26031545  0.18219967     0.11010
H4652       H  0.63364344  0.33289327  0.19439496     0.11010
C4653       C  0.79615527  0.22652457  0.13636512    -0.15130
C4654       C  0.79453016  0.25028008  0.12481736     0.07020
C4655       C  0.81608281  0.26580887  0.12383422    -0.15130
C4656       C  0.83786503  0.25903962  0.13708383    -0.15130
C4657       C  0.83811784  0.23671209  0.15118301     0.07020
C4658       C  0.81781831  0.21983427  0.14953780    -0.15130
H4659       H  0.77997123  0.21404661  0.13705500     0.11010
H4660       H  0.81532242  0.28419656  0.11492046     0.11010
H4661       H  0.85333002  0.27234483  0.13845443     0.11010
H4662       H  0.81784364  0.20249094  0.16039656     0.11010
C4663       C  0.68247555  0.18174054  0.12708012    -0.15130
C4664       C  0.70188355  0.19497297  0.11472181     0.07020
C4665       C  0.72621438  0.18436381  0.11455106    -0.15130
C4666       C  0.73147356  0.16218873  0.12812771    -0.15130
C4667       C  0.71239060  0.14976791  0.14171482     0.07020
C4668       C  0.68761561  0.15918829  0.14018210    -0.15130
H4669       H  0.66384611  0.19003711  0.12853837     0.11010
H4670       H  0.74174999  0.19469717  0.10617825     0.11010
H4671       H  0.75085831  0.15588240  0.12970414     0.11010
H4672       H  0.67275685  0.15059125  0.15129019     0.11010
C4673       C  0.66393756  0.35643268  0.07397898    -0.15130
C4674       C  0.68706444  0.34670116  0.06521177     0.07020
C4675       C  0.70386735  0.36313793  0.05281630    -0.15130
C4676       C  0.69762949  0.38835033  0.04875765    -0.15130
C4677       C  0.67458557  0.39806111  0.05724987     0.07020
C4678       C  0.65775664  0.38200990  0.07005420    -0.15130
H4679       H  0.65076992  0.34436165  0.08390718     0.11010
H4680       H  0.72195015  0.35648406  0.04599242     0.11010
H4681       H  0.71065805  0.40025353  0.03841392     0.11010
H4682       H  0.63951980  0.38899614  0.07610441     0.11010
C4683       C  0.40005343  0.02590204  0.56563125    -0.15130
C4684       C  0.39947471  0.00998977  0.58674349     0.07020
C4685       C  0.38389187  0.98867515  0.58674546    -0.15130
C4686       C  0.37133645  0.98173349  0.56462679    -0.15130
C4687       C  0.37446742  0.99607869  0.54248068     0.07020
C4688       C  0.38755178  0.01905910  0.54363795    -0.15130
H4689       H  0.41216403  0.04238618  0.56539820     0.11010
H4690       H  0.38357932  0.97606612  0.60283092     0.11010
H4691       H  0.36115225  0.96400977  0.56426358     0.11010
H4692       H  0.38991719  0.03068246  0.52699196     0.11010
C4693       C  0.43326543  0.10102516  0.57683882    -0.15130
C4694       C  0.45650752  0.10042419  0.58957890     0.07020
C4695       C  0.47559526  0.11726862  0.58249284    -0.15130
C4696       C  0.47269547  0.13196178  0.56075561    -0.15130
C4697       C  0.45054579  0.13023147  0.54622931     0.07020
C4698       C  0.43018497  0.11610918  0.55542333    -0.15130
H4699       H  0.41835102  0.08804270  0.58205116     0.11010
H4700       H  0.49375281  0.11681674  0.59186421     0.11010
H4701       H  0.48885001  0.14226832  0.55360473     0.11010
H4702       H  0.41323585  0.11396931  0.54419965     0.11010
C4703       C  0.46400445  0.93145062  0.61326476    -0.15130
C4704       C  0.48258942  0.95020503  0.61617869     0.07020
C4705       C  0.50755415  0.94504172  0.60926352    -0.15130
C4706       C  0.51335556  0.92244306  0.59722076    -0.15130
C4707       C  0.49428632  0.90492768  0.59191343     0.07020
C4708       C  0.46981824  0.90890859  0.60093916    -0.15130
H4709       H  0.44454909  0.93514138  0.61835893     0.11010
H4710       H  0.52215984  0.95917652  0.61151134     0.11010
H4711       H  0.53219888  0.91968245  0.58988539     0.11010
H4712       H  0.45480658  0.89581275  0.59631599     0.11010
C4713       C  0.55892159  0.02111986  0.62829527    -0.15130
C4714       C  0.54647654  0.04440732  0.62561594     0.07020
C4715       C  0.55813816  0.06336073  0.61113528    -0.15130
C4716       C  0.58087994  0.05857107  0.59830189    -0.15130
C4717       C  0.59218208  0.03457544  0.59931830     0.07020
C4718       C  0.58141037  0.01617955  0.61510852    -0.15130
H4719       H  0.54983908  0.00581987  0.63837752     0.11010
H4720       H  0.54843679  0.08106318  0.60782074     0.11010
H4721       H  0.58817424  0.07274007  0.58548647     0.11010
H4722       H  0.58917315  0.99725773  0.61548051     0.11010
C4723       C  0.26797703  0.12654002  0.81371780    -0.15130
C4724       C  0.25065239  0.12635784  0.79357530     0.07020
C4725       C  0.22647057  0.13641262  0.79711450    -0.15130
C4726       C  0.22066882  0.14895747  0.81940549    -0.15130
C4727       C  0.23890029  0.15151001  0.83836749     0.07020
C4728       C  0.26213937  0.13923406  0.83605405    -0.15130
H4729       H  0.28680606  0.11891807  0.81139477     0.11010
H4730       H  0.21275036  0.13628166  0.78197431     0.11010
H4731       H  0.20277618  0.15870601  0.82090744     0.11010
H4732       H  0.27655562  0.14156319  0.85034938     0.11010
C4733       C  0.17898567  0.13000032  0.67990493    -0.15130
C4734       C  0.19098985  0.11607399  0.69904500     0.07020
C4735       C  0.17937181  0.11484610  0.72285863    -0.15130
C4736       C  0.15752014  0.12896395  0.72804368    -0.15130
C4737       C  0.14650170  0.14420328  0.70937080     0.07020
C4738       C  0.15681323  0.14372961  0.68494976    -0.15130
H4739       H  0.18810539  0.13227230  0.66176029     0.11010
H4740       H  0.18878468  0.10526248  0.73826649     0.11010
H4741       H  0.15044235  0.12962962  0.74719854     0.11010
H4742       H  0.14923836  0.15601525  0.67047040     0.11010
C4743       C  0.26405519  0.15836975  0.62609594    -0.15130
C4744       C  0.28238395  0.15235589  0.64416609     0.07020
C4745       C  0.30532519  0.16567743  0.64415858    -0.15130
C4746       C  0.30878731  0.18647806  0.62823416    -0.15130
C4747       C  0.28907621  0.19463871  0.61260712     0.07020
C4748       C  0.26729385  0.17954695  0.61056640    -0.15130
H4749       H  0.24612311  0.14855211  0.62597206     0.11010
H4750       H  0.31972288  0.16129595  0.65797324     0.11010
H4751       H  0.32539313  0.19815163  0.63072843     0.11010
H4752       H  0.25153313  0.18589600  0.59919983     0.11010
C4753       C  0.35292836  0.15413528  0.75637836    -0.15130
C4754       C  0.33675642  0.15427865  0.73556313     0.07020
C4755       C  0.33626580  0.17521649  0.71938730    -0.15130
C4756       C  0.34941352  0.19703488  0.72558632    -0.15130
C4757       C  0.36303109  0.19818451  0.74819772     0.07020
C4758       C  0.36611871  0.17609158  0.76268836    -0.15130
H4759       H  0.35327087  0.13814727  0.76912007     0.11010
H4760       H  0.32377328  0.17551417  0.70322555     0.11010
H4761       H  0.34708377  0.21362437  0.71385408     0.11010
H4762       H  0.37674181  0.17644021  0.78012507     0.11010
C4763       C  0.35974746  0.05795941  0.70361442    -0.15130
C4764       C  0.34370041  0.06942869  0.68581112     0.07020
C4765       C  0.35439390  0.07903502  0.66347012    -0.15130
C4766       C  0.38048144  0.07632531  0.65883976    -0.15130
C4767       C  0.39606956  0.06413285  0.67656902     0.07020
C4768       C  0.38542543  0.05536283  0.69904931    -0.15130
H4769       H  0.35244821  0.05060781  0.72122266     0.11010
H4770       H  0.34264595  0.08839232  0.64962409     0.11010
H4771       H  0.38821213  0.08255201  0.64098081     0.11010
H4772       H  0.39692830  0.04546557  0.71275961     0.11010
C4773       C  0.25915250  0.97632375  0.72547247    -0.15130
C4774       C  0.25863604  0.97037737  0.75136614     0.07020
C4775       C  0.25537539  0.99010181  0.76877732    -0.15130
C4776       C  0.25463160  0.01526385  0.76063802    -0.15130
C4777       C  0.25696461  0.02131152  0.73487759     0.07020
C4778       C  0.25824140  0.00148928  0.71732044    -0.15130
H4779       H  0.26153307  0.96159047  0.71151248     0.11010
H4780       H  0.25487193  0.98623220  0.78882219     0.11010
H4781       H  0.25354782  0.03007050  0.77468085     0.11010
H4782       H  0.26015096  0.00545109  0.69737623     0.11010
C4783       C  0.35363894  0.83466836  0.73540826    -0.15130
C4784       C  0.33611736  0.83446326  0.75510986     0.07020
C4785       C  0.33431193  0.81337159  0.77098446    -0.15130
C4786       C  0.34763551  0.79149433  0.76543113    -0.15130
C4787       C  0.36268668  0.79043444  0.74372845     0.07020
C4788       C  0.36694748  0.81262855  0.72969907    -0.15130
H4789       H  0.35511145  0.85085320  0.72299963     0.11010
H4790       H  0.32090894  0.81311720  0.78642251     0.11010
H4791       H  0.34440034  0.77483242  0.77684178     0.11010
H4792       H  0.37873513  0.81235929  0.71301435     0.11010
C4793       C  0.26737183  0.83779766  0.86582093    -0.15130
C4794       C  0.28475361  0.84323491  0.84665451     0.07020
C4795       C  0.30785593  0.83015366  0.84620124    -0.15130
C4796       C  0.31224309  0.80997415  0.86269740    -0.15130
C4797       C  0.29329194  0.80210988  0.87939820     0.07020
C4798       C  0.27155065  0.81722639  0.88198163    -0.15130
H4799       H  0.24934606  0.84743062  0.86638485     0.11010
H4800       H  0.32156077  0.83406016  0.83154350     0.11010
H4801       H  0.32879411  0.79830939  0.85977246     0.11010
H4802       H  0.25633645  0.81113213  0.89420323     0.11010
C4803       C  0.22703161  0.85135190  0.69498981    -0.15130
C4804       C  0.25013435  0.86405096  0.69710127     0.07020
C4805       C  0.26614464  0.86558605  0.67592757    -0.15130
C4806       C  0.26048418  0.85201794  0.65403038    -0.15130
C4807       C  0.23880633  0.83698446  0.65328300     0.07020
C4808       C  0.22150525  0.83778225  0.67326037    -0.15130
H4809       H  0.21420344  0.85013879  0.71085649     0.11010
H4810       H  0.28405870  0.87536150  0.67704420     0.11010
H4811       H  0.27411336  0.85131620  0.63881423     0.11010
H4812       H  0.20470275  0.82614525  0.67288688     0.11010
C4813       C  0.17919644  0.86370062  0.80849298    -0.15130
C4814       C  0.19182464  0.87701137  0.78931771     0.07020
C4815       C  0.18075922  0.87796381  0.76525263    -0.15130
C4816       C  0.15880601  0.86409268  0.75991029    -0.15130
C4817       C  0.14713445  0.84943782  0.77867033     0.07020
C4818       C  0.15690218  0.85027458  0.80328952    -0.15130
H4819       H  0.18787223  0.86169587  0.82687761     0.11010
H4820       H  0.19065212  0.88708811  0.74986162     0.11010
H4821       H  0.15216925  0.86309135  0.74061868     0.11010
H4822       H  0.14883990  0.83840327  0.81785429     0.11010
C4823       C  0.48042363  0.01758499  0.76456221    -0.15130
C4824       C  0.47980682  0.99158076  0.77016860     0.07020
C4825       C  0.48134791  0.97423822  0.75021108    -0.15130
C4826       C  0.48134384  0.98266746  0.72518967    -0.15130
C4827       C  0.47996015  0.00862793  0.71956974     0.07020
C4828       C  0.48057671  0.02601686  0.73953517    -0.15130
H4829       H  0.47938295  0.03147745  0.77951144     0.11010
H4830       H  0.48091887  0.95411996  0.75384851     0.11010
H4831       H  0.48103858  0.96876152  0.71022087     0.11010
H4832       H  0.47949681  0.04610819  0.73587175     0.11010
C4833       C  0.38404000  0.01143432  0.90382709    -0.15130
C4834       C  0.39938302  0.98996630  0.90320564     0.07020
C4835       C  0.39900538  0.97283498  0.92333019    -0.15130
C4836       C  0.38585322  0.97859848  0.94523853    -0.15130
C4837       C  0.37324299  0.00177612  0.94731617     0.07020
C4838       C  0.37091852  0.01734713  0.92590263    -0.15130
H4839       H  0.38435355  0.02486614  0.88841942     0.11010
H4840       H  0.41083235  0.95614963  0.92298537     0.11010
H4841       H  0.38755985  0.96604473  0.96128213     0.11010
H4842       H  0.36106233  0.03523419  0.92696048     0.11010
C4843       C  0.46622408  0.86299080  0.92480201    -0.15130
C4844       C  0.44430832  0.86535052  0.93966398     0.07020
C4845       C  0.42498435  0.88139256  0.93135338    -0.15130
C4846       C  0.42900515  0.89740819  0.91072762    -0.15130
C4847       C  0.45218498  0.89721836  0.89779278     0.07020
C4848       C  0.47007750  0.87870748  0.90386011    -0.15130
H4849       H  0.48171355  0.85131186  0.93127788     0.11010
H4850       H  0.40828860  0.88414279  0.94283702     0.11010
H4851       H  0.41491823  0.91155968  0.90632084     0.11010
H4852       H  0.48818686  0.87840837  0.89438243     0.11010
C4853       C  0.51237336  0.04823244  0.88458423    -0.15130
C4854       C  0.48809702  0.04637170  0.87430411     0.07020
C4855       C  0.47232779  0.06776419  0.87396307    -0.15130
C4856       C  0.47951480  0.08963230  0.88679678    -0.15130
C4857       C  0.50248012  0.09006992  0.89976824     0.07020
C4858       C  0.51950801  0.06999961  0.89727737    -0.15130
H4859       H  0.52499468  0.03215300  0.88475364     0.11010
H4860       H  0.45354023  0.06678486  0.86598732     0.11010
H4861       H  0.46612686  0.10496147  0.88886381     0.11010
H4862       H  0.53733242  0.07021143  0.90729292     0.11010
C4863       C  0.55426577  0.98056485  0.86675184    -0.15130
C4864       C  0.54492489  0.95582826  0.86453229     0.07020
C4865       C  0.55936277  0.93594559  0.87461566    -0.15130
C4866       C  0.58194669  0.94088651  0.88777927    -0.15130
C4867       C  0.59008631  0.96586409  0.89174418     0.07020
C4868       C  0.57637258  0.98556259  0.88044542    -0.15130
H4869       H  0.54309768  0.99630539  0.85999480     0.11010
H4870       H  0.55209109  0.91684095  0.87418089     0.11010
H4871       H  0.59163900  0.92541853  0.89699278     0.11010
H4872       H  0.58179057  0.00501056  0.88374524     0.11010
C4873       C  0.37350221  0.95391904  0.82386596    -0.15130
C4874       C  0.39354598  0.93784219  0.81688222     0.07020
C4875       C  0.38803268  0.91436888  0.80605286    -0.15130
C4876       C  0.36291419  0.90786755  0.80085177    -0.15130
C4877       C  0.34304934  0.92436810  0.80717317     0.07020
C4878       C  0.34845045  0.94716317  0.81921202    -0.15130
H4879       H  0.37725689  0.97204112  0.83254170     0.11010
H4880       H  0.40310314  0.90168748  0.80057393     0.11010
H4881       H  0.35898863  0.89028978  0.79116883     0.11010
H4882       H  0.33343183  0.96025384  0.82382464     0.11010
C4883       C  0.00925078  0.76287247  0.48768899    -0.15130
C4884       C  0.98373206  0.76927833  0.48417075     0.07020
C4885       C  0.96588814  0.74978800  0.48198252    -0.15130
C4886       C  0.97368456  0.72454105  0.48106752    -0.15130
C4887       C  0.99946458  0.71828603  0.48248321     0.07020
C4888       C  0.01702332  0.73765070  0.48693349    -0.15130
H4889       H  0.02345187  0.77745635  0.48957160     0.11010
H4890       H  0.94610444  0.75409623  0.47919881     0.11010
H4891       H  0.95964122  0.71005393  0.47780046     0.11010
H4892       H  0.03698950  0.73349475  0.48825939     0.11010
C4893       C  0.01342716  0.90275216  0.39009072    -0.15130
C4894       C  0.99058254  0.90131465  0.40321528     0.07020
C4895       C  0.97273855  0.92069438  0.40082981    -0.15130
C4896       C  0.97863320  0.94256384  0.38759727    -0.15130
C4897       C  0.00256795  0.94533124  0.37673091     0.07020
C4898       C  0.01939217  0.92472538  0.37675332    -0.15130
H4899       H  0.02752585  0.88808099  0.39218634     0.11010
H4900       H  0.95512717  0.91984786  0.41114512     0.11010
H4901       H  0.96525949  0.95804346  0.38760767     0.11010
H4902       H  0.03800802  0.92643334  0.36848701     0.11010
C4903       C  0.87670154  0.90596408  0.47261351    -0.15130
C4904       C  0.89558520  0.90062739  0.45488648     0.07020
C4905       C  0.89619325  0.91433219  0.43220211    -0.15130
C4906       C  0.88003591  0.93490754  0.42853553    -0.15130
C4907       C  0.86351692  0.94240375  0.44778224     0.07020
C4908       C  0.86092317  0.92691618  0.46918883    -0.15130
H4909       H  0.87604358  0.89578804  0.49032341     0.11010
H4910       H  0.91054268  0.91038865  0.41821188     0.11010
H4911       H  0.88291546  0.94692301  0.41224058     0.11010
H4912       H  0.84884854  0.93278177  0.48460606     0.11010
C4913       C  0.04544947  0.88690641  0.51548908    -0.15130
C4914       C  0.04352687  0.87403876  0.49249590     0.07020
C4915       C  0.06497126  0.87193567  0.47690645    -0.15130
C4916       C  0.08694608  0.88534231  0.48270675    -0.15130
C4917       C  0.08749580  0.90070927  0.50413694     0.07020
C4918       C  0.06728462  0.90024501  0.52119473    -0.15130
H4919       H  0.02935841  0.88851642  0.52799808     0.11010
H4920       H  0.06398874  0.86198840  0.45909210     0.11010
H4921       H  0.10233019  0.88578383  0.46925441     0.11010
H4922       H  0.06748316  0.91216023  0.53778657     0.11010
C4923       C  0.92936175  0.88012023  0.55916300    -0.15130
C4924       C  0.94806057  0.86514602  0.54776602     0.07020
C4925       C  0.97131150  0.86222379  0.56017121    -0.15130
C4926       C  0.97654361  0.87576688  0.58232591    -0.15130
C4927       C  0.95841299  0.89203590  0.59277161     0.07020
C4928       C  0.93440422  0.89323925  0.58161324    -0.15130
H4929       H  0.91171880  0.88357867  0.54944042     0.11010
H4930       H  0.98640990  0.85172449  0.55122236     0.11010
H4931       H  0.99544261  0.87520348  0.59008351     0.11010
H4932       H  0.92044629  0.90636667  0.58877775     0.11010
C4933       C  0.98936549  0.77346167  0.25914310    -0.15130
C4934       C  0.96971315  0.75567546  0.25853764     0.07020
C4935       C  0.97584869  0.72993379  0.25614467    -0.15130
C4936       C  0.00102743  0.72200938  0.25642704    -0.15130
C4937       C  0.02062443  0.73964227  0.25925545     0.07020
C4938       C  0.01456412  0.76552338  0.25957331    -0.15130
H4939       H  0.98528463  0.79341367  0.26101244     0.11010
H4940       H  0.96114170  0.71574938  0.25550378     0.11010
H4941       H  0.00502545  0.70195775  0.25602487     0.11010
H4942       H  0.02922758  0.77961889  0.26159081     0.11010
C4943       C  0.86724777  0.67616850  0.26724769    -0.15130
C4944       C  0.86512432  0.69767524  0.25174754     0.07020
C4945       C  0.85283788  0.69569265  0.22845022    -0.15130
C4946       C  0.84007837  0.67363605  0.22226597    -0.15130
C4947       C  0.83958256  0.65330722  0.23918781     0.07020
C4948       C  0.85440068  0.65399094  0.26098648    -0.15130
H4949       H  0.87678539  0.67720136  0.28527650     0.11010
H4950       H  0.85127818  0.71183766  0.21599527     0.11010
H4951       H  0.82857805  0.67331597  0.20538695     0.11010
H4952       H  0.85389529  0.63851436  0.27434014     0.11010
C4953       C  0.86010874  0.80986299  0.18310104    -0.15130
C4954       C  0.87393642  0.79099350  0.19562794     0.07020
C4955       C  0.87579545  0.76703858  0.18436640    -0.15130
C4956       C  0.86250606  0.76149276  0.16213412    -0.15130
C4957       C  0.84753769  0.77995618  0.15037909     0.07020
C4958       C  0.84728464  0.80448003  0.16051864    -0.15130
H4959       H  0.85740111  0.82810673  0.19193445     0.11010
H4960       H  0.88533873  0.75184659  0.19419048     0.11010
H4961       H  0.86228264  0.74223787  0.15524298     0.11010
H4962       H  0.83509090  0.81876113  0.15241514     0.11010
C4963       C  0.82643742  0.84610824  0.31114634    -0.15130
C4964       C  0.84027958  0.84650006  0.28853627     0.07020
C4965       C  0.83537110  0.86552969  0.27083406    -0.15130
C4966       C  0.81457794  0.88155609  0.27409961    -0.15130
C4967       C  0.79876550  0.87899414  0.29527557     0.07020
C4968       C  0.80601061  0.86249370  0.31464272    -0.15130
H4969       H  0.83007720  0.83169188  0.32515856     0.11010
H4970       H  0.84568236  0.86607896  0.25320215     0.11010
H4971       H  0.80895933  0.89364734  0.25860296     0.11010
H4972       H  0.79379479  0.85966217  0.33079407     0.11010
C4973       C  0.81867290  0.77003015  0.34250153    -0.15130
C4974       C  0.83857889  0.75265020  0.34120066     0.07020
C4975       C  0.83765443  0.73044480  0.35542761    -0.15130
C4976       C  0.81556379  0.72431781  0.36845515    -0.15130
C4977       C  0.79438415  0.74034810  0.36705437     0.07020
C4978       C  0.79669123  0.76397233  0.35542054    -0.15130
H4979       H  0.81916877  0.78719010  0.33141146     0.11010
H4980       H  0.85279330  0.71673949  0.35427589     0.11010
H4981       H  0.81426617  0.70601574  0.37748375     0.11010
H4982       H  0.78079490  0.77680495  0.35442053     0.11010
C4983       C  0.91327680  0.82375383  0.35852831    -0.15130
C4984       C  0.92718614  0.80529627  0.34543746     0.07020
C4985       C  0.94547232  0.79131908  0.35854400    -0.15130
C4986       C  0.94986019  0.79554331  0.38402781    -0.15130
C4987       C  0.93602863  0.81380723  0.39731692     0.07020
C4988       C  0.91762793  0.82793971  0.38439041    -0.15130
H4989       H  0.89866969  0.83438202  0.34897044     0.11010
H4990       H  0.95630251  0.77677668  0.34907855     0.11010
H4991       H  0.96434061  0.78453181  0.39336638     0.11010
H4992       H  0.90709908  0.84252529  0.39410347     0.11010
loop_ 
_geom_bond_atom_site_label_1 
_geom_bond_atom_site_label_2 
_geom_bond_distance 
_geom_bond_site_symmetry_2 
_ccdc_geom_bond_type 
O1           C16   1.271       .  A
O1           Al9   1.946       .  S
C2           O12   1.259       .  A
C2            O3   1.259       .  A
C2         C4974   1.455       .  S
O3           Al5   1.888       .  S
O4            C6   1.258       .  A
O4           Al5   1.888       .  S
Al5          O13   1.893       .  S
Al5          O15   1.907       .  S
Al5          O14   1.762       .  S
C6           O19   1.267       .  A
C6         C4964   1.476       .  S
O7           C17   1.268       .  A
O7           Al9   1.935       .  S
O8           C21   1.261       .  A
O8          Al18   1.888       .  S
Al9          O22   1.946       .  S
Al9          O19   1.948       .  S
Al9          O14   1.773       .  S
O10          C17   1.261       .  A
O10         Al18   1.896       .  S
O11          C20   1.261       .  A
O11         Al18   1.907       .  S
O12         Al18   1.904       .  S
O13          C20   1.263       .  A
O14         Al18   1.779       .  S
O15          C16   1.261       .  A
C16        C4954   1.481       .  S
C17        C4984   1.479       .  S
C20        C4944   1.470       .  S
C21          O22   1.270       .  A
C21        C4934   1.483       .  S
O23          C38   1.270       .  A
O23         Al31   1.943       .  S
C24          O34   1.259       .  A
C24          O25   1.259       .  A
C24        C4894   1.455       .  S
O25         Al27   1.889       .  S
O26          C28   1.258       .  A
O26         Al27   1.888       .  S
Al27         O35   1.894       .  S
Al27         O37   1.905       .  S
Al27         O36   1.762       .  S
C28          O41   1.266       .  A
C28        C4904   1.475       .  S
O29          C39   1.267       .  A
O29         Al31   1.932       .  S
O30          C43   1.261       .  A
O30         Al40   1.888       .  S
Al31         O44   1.945       .  S
Al31         O41   1.946       .  S
Al31         O36   1.775       .  S
O32          C39   1.262       .  A
O32         Al40   1.899       .  S
O33          C42   1.261       .  A
O33         Al40   1.907   1_455  S
O34         Al40   1.903       .  S
O35          C42   1.263   1_655  A
O36         Al40   1.778       .  S
O37          C38   1.261       .  A
C38        C4924   1.478       .  S
C39        C4987   1.478       .  S
C42        C4914   1.471       .  S
C43          O44   1.270       .  A
C43        C4884   1.482       .  S
O45          C60   1.271       .  A
O45         Al53   1.953       .  S
C46          O56   1.256       .  A
C46          O47   1.258       .  A
C46        C4834   1.454       .  S
O47         Al49   1.888       .  S
O48          C50   1.258       .  A
O48         Al49   1.881       .  S
Al49         O57   1.887   1_565  S
Al49         O59   1.906       .  S
Al49         O58   1.765       .  S
C50          O63   1.270       .  A
C50        C4847   1.478       .  S
O51          C61   1.268       .  A
O51         Al53   1.930       .  S
O52          C65   1.259       .  A
O52         Al62   1.884       .  S
Al53         O66   1.947       .  S
Al53         O63   1.960       .  S
Al53         O58   1.776       .  S
O54          C61   1.260       .  A
O54         Al62   1.894       .  S
O55          C64   1.262       .  A
O55         Al62   1.908   1_545  S
O56         Al62   1.898       .  S
O57          C64   1.263       .  A
O58         Al62   1.781       .  S
O59          C60   1.259       .  A
C60        C4864   1.484       .  S
C61        C4874   1.477       .  S
C64        C4854   1.466       .  S
C65          O66   1.271       .  A
C65        C4824   1.485       .  S
O67          C82   1.269       .  A
O67         Al75   1.949       .  S
C68          O78   1.256       .  A
C68          O69   1.256       .  A
C68        C4784   1.455       .  S
O69         Al71   1.882       .  S
O70          C72   1.258       .  A
O70         Al71   1.881       .  S
Al71         O79   1.892       .  S
Al71         O81   1.901       .  S
Al71         O80   1.768       .  S
C72          O85   1.271       .  A
C72        C4794   1.479       .  S
O73          C83   1.265       .  A
O73         Al75   1.921       .  S
O74          C87   1.261       .  A
O74         Al84   1.890       .  S
Al75         O88   1.943       .  S
Al75         O85   1.961       .  S
Al75         O80   1.777       .  S
O76          C83   1.259       .  A
O76         Al84   1.894       .  S
O77          C86   1.264       .  A
O77         Al84   1.913       .  S
O78         Al84   1.901       .  S
O79          C86   1.264       .  A
O80         Al84   1.783       .  S
O81          C82   1.258       .  A
C82        C4814   1.481       .  S
C83        C4877   1.468       .  S
C86        C4804   1.471       .  S
C87          O88   1.270       .  A
C87        C4774   1.489       .  S
O89         C104   1.273       .  A
O89         Al97   1.952       .  S
C90         O100   1.261       .  A
C90          O91   1.260       .  A
C90        C4754   1.456       .  S
O91         Al93   1.888       .  S
O92          C94   1.257       .  A
O92         Al93   1.885       .  S
Al93        O101   1.898       .  S
Al93        O103   1.899       .  S
Al93        O102   1.761       .  S
C94         O107   1.266       .  A
C94        C4744   1.476       .  S
O95         C105   1.269       .  A
O95         Al97   1.950       .  S
O96         C109   1.263       .  A
O96        Al106   1.890       .  S
Al97        O110   1.959       .  S
Al97        O107   1.948       .  S
Al97        O102   1.775       .  S
O98         C105   1.258       .  A
O98        Al106   1.890       .  S
O99         C108   1.260       .  A
O99        Al106   1.902       .  S
O100       Al106   1.906       .  S
O101        C108   1.263       .  A
O102       Al106   1.780       .  S
O103        C104   1.260       .  A
C104       C4734   1.481       .  S
C105       C4764   1.487       .  S
C108       C4724   1.468       .  S
C109        O110   1.274       .  A
C109       C4777   1.488       .  S
O111        C126   1.270       .  A
O111       Al119   1.948       .  S
C112        O122   1.261       .  A
C112        O113   1.260       .  A
C112       C4684   1.457       .  S
O113       Al115   1.891       .  S
O114        C116   1.257       .  A
O114       Al115   1.878       .  S
Al115       O123   1.897   1_545  S
Al115       O125   1.902       .  S
Al115       O124   1.762       .  S
C116        O129   1.266       .  A
C116       C4694   1.470       .  S
O117        C127   1.265       .  A
O117       Al119   1.938       .  S
O118        C131   1.262       .  A
O118       Al128   1.885       .  S
Al119       O132   1.953       .  S
Al119       O129   1.944       .  S
Al119       O124   1.776       .  S
O120        C127   1.258       .  A
O120       Al128   1.892       .  S
O121        C130   1.260       .  A
O121       Al128   1.902   1_565  S
O122       Al128   1.906       .  S
O123        C130   1.263       .  A
O124       Al128   1.781       .  S
O125        C126   1.260       .  A
C126       C4714   1.483       .  S
C127       C4767   1.474       .  S
C130       C4704   1.465       .  S
C131        O132   1.273       .  A
C131       C4827   1.485       .  S
O133        C148   1.271       .  A
O133       Al141   1.952       .  S
C134        O144   1.259       .  A
C134        O135   1.258       .  A
C134       C4634   1.458       .  S
O135       Al137   1.888       .  S
O136        C138   1.258       .  A
O136       Al137   1.886       .  S
Al137       O145   1.891       .  S
Al137       O147   1.906       .  S
Al137       O146   1.765       .  S
C138        O151   1.269       .  A
C138       C4644   1.478       .  S
O139        C149   1.268       .  A
O139       Al141   1.936       .  S
O140        C153   1.261       .  A
O140       Al150   1.891       .  S
Al141       O154   1.948       .  S
Al141       O151   1.955       .  S
Al141       O146   1.774       .  S
O142        C149   1.262       .  A
O142       Al150   1.899       .  S
O143        C152   1.263       .  A
O143       Al150   1.913       .  S
O144       Al150   1.907       .  S
O145        C152   1.263       .  A
O146       Al150   1.780       .  S
O147        C148   1.260       .  A
C148       C4664   1.483       .  S
C149       C4674   1.487       .  S
C152       C4654   1.470       .  S
C153        O154   1.271       .  A
C153       C4624   1.488       .  S
O155        C170   1.270       .  A
O155       Al163   1.951       .  S
C156        O166   1.259       .  A
C156        O157   1.258       .  A
C156       C4604   1.458       .  S
O157       Al159   1.886       .  S
O158        C160   1.259       .  A
O158       Al159   1.882       .  S
Al159       O167   1.891   1_554  S
Al159       O169   1.902       .  S
Al159       O168   1.766       .  S
C160        O173   1.269       .  A
C160       C4614   1.476       .  S
O161        C171   1.267       .  A
O161       Al163   1.932       .  S
O162        C175   1.260   1_556  A
O162       Al172   1.888   1_556  S
Al163       O176   1.944       .  S
Al163       O173   1.954       .  S
Al163       O168   1.774       .  S
O164        C171   1.261       .  A
O164       Al172   1.899       .  S
O165        C174   1.264       .  A
O165       Al172   1.912   1_556  S
O166       Al172   1.907       .  S
O167        C174   1.263       .  A
O168       Al172   1.778       .  S
O169        C170   1.258       .  A
C170       C4594   1.481       .  S
C171       C4677   1.474       .  S
C174       C4587   1.471       .  S
C175        O176   1.270       .  A
C175       C4574   1.485       .  S
O177        C192   1.271       .  A
O177       Al185   1.952       .  S
C178        O188   1.255       .  A
C178        O179   1.256       .  A
C178       C4524   1.454       .  S
O179       Al181   1.881       .  S
O180        C182   1.257       .  A
O180       Al181   1.876       .  S
Al181       O189   1.883       .  S
Al181       O191   1.908       .  S
Al181       O190   1.767       .  S
C182        O195   1.269       .  A
C182       C4534   1.471       .  S
O183        C193   1.268       .  A
O183       Al185   1.924       .  S
O184        C197   1.259       .  A
O184       Al194   1.891       .  S
Al185       O198   1.930       .  S
Al185       O195   1.956       .  S
Al185       O190   1.778       .  S
O186        C193   1.263       .  A
O186       Al194   1.904       .  S
O187        C196   1.266       .  A
O187       Al194   1.919       .  S
O188       Al194   1.895       .  S
O189        C196   1.263       .  A
O190       Al194   1.782       .  S
O191        C192   1.259       .  A
C192       C4554   1.483       .  S
C193       C4564   1.476       .  S
C196       C4544   1.473       .  S
C197        O198   1.266       .  A
C197       C4937   1.484       .  S
O199        C214   1.271       .  A
O199       Al207   1.956       .  S
C200        O210   1.257       .  A
C200        O201   1.258       .  A
C200       C4484   1.459       .  S
O201       Al203   1.887       .  S
O202        C204   1.258       .  A
O202       Al203   1.880       .  S
Al203       O211   1.894   1_455  S
Al203       O213   1.904       .  S
Al203       O212   1.769       .  S
C204        O217   1.268       .  A
C204       C4494   1.474       .  S
O205        C215   1.268       .  A
O205       Al207   1.938       .  S
O206        C219   1.262   1_655  A
O206       Al216   1.892   1_655  S
Al207       O220   1.932       .  S
Al207       O217   1.952       .  S
Al207       O212   1.776       .  S
O208        C215   1.259       .  A
O208       Al216   1.892       .  S
O209        C218   1.263       .  A
O209       Al216   1.911   1_655  S
O210       Al216   1.902       .  S
O211        C218   1.264       .  A
O212       Al216   1.782       .  S
O213        C214   1.258       .  A
C214       C4517   1.486       .  S
C215       C4567   1.480       .  S
C218       C4504   1.471       .  S
C219        O220   1.268       .  A
C219       C4887   1.484   1_455  S
O221        C236   1.271       .  A
O221       Al229   1.952       .  S
C222        O232   1.257       .  A
C222        O223   1.257       .  A
C222       C4434   1.456       .  S
O223       Al225   1.887       .  S
O224        C226   1.258       .  A
O224       Al225   1.881       .  S
Al225       O233   1.887   1_556  S
Al225       O235   1.900       .  S
Al225       O234   1.766       .  S
C226        O239   1.269       .  A
C226       C4444   1.473       .  S
O227        C237   1.267       .  A
O227       Al229   1.929       .  S
O228        C241   1.260       .  A
O228       Al238   1.887       .  S
Al229       O242   1.942       .  S
Al229       O239   1.954       .  S
Al229       O234   1.777       .  S
O230        C237   1.260       .  A
O230       Al238   1.892       .  S
O231        C240   1.263       .  A
O231       Al238   1.908   1_554  S
O232       Al238   1.901       .  S
O233        C240   1.263       .  A
O234       Al238   1.783       .  S
O235        C236   1.258       .  A
C236       C4464   1.482       .  S
C237       C4474   1.475       .  S
C240       C4454   1.467       .  S
C241        O242   1.270       .  A
C241       C4577   1.486       .  S
O243        C258   1.271       .  A
O243       Al251   1.955       .  S
C244        O254   1.255       .  A
C244        O245   1.255       .  A
C244       C4394   1.455       .  S
O245       Al247   1.883       .  S
O246        C248   1.259       .  A
O246       Al247   1.880       .  S
Al247       O255   1.884       .  S
Al247       O257   1.905       .  S
Al247       O256   1.767       .  S
C248        O261   1.271       .  A
C248       C4404   1.475       .  S
O249        C259   1.266       .  A
O249       Al251   1.920       .  S
O250        C263   1.259       .  A
O250       Al260   1.889       .  S
Al251       O264   1.939       .  S
Al251       O261   1.959       .  S
Al251       O256   1.776       .  S
O252        C259   1.261       .  A
O252       Al260   1.896       .  S
O253        C262   1.265       .  A
O253       Al260   1.911       .  S
O254       Al260   1.899       .  S
O255        C262   1.264       .  A
O256       Al260   1.781       .  S
O257        C258   1.258       .  A
C258       C4424   1.483       .  S
C259       C4477   1.468       .  S
C262       C4414   1.468       .  S
C263        O264   1.268       .  A
C263       C4627   1.487       .  S
O265        C280   1.256       .  A
O265       Al273   1.894       .  S
C266        O276   1.260       .  A
C266        O267   1.255       .  A
C266       C4374   1.485       .  S
O267       Al269   1.908       .  S
O268        C270   1.262       .  A
O268       Al269   1.885       .  S
Al269       O277   1.855       .  S
Al269       O279   1.890       .  S
Al269       O278   1.770       .  S
C270        O283   1.264       .  A
C270       C4384   1.458       .  S
O271        C281   1.254       .  A
O271       Al273   1.855       .  S
O272        C285   1.266       .  A
O272       Al282   1.933       .  S
Al273       O286   1.882       .  S
Al273       O283   1.911       .  S
Al273       O278   1.785       .  S
O274        C281   1.271       .  A
O274       Al282   1.940       .  S
O275        C284   1.278       .  A
O275       Al282   1.978       .  S
O276       Al282   1.939       .  S
O277        C284   1.257       .  A
O278       Al282   1.782       .  S
O279        C280   1.259       .  A
C280       C4354   1.451       .  S
C281       C4344   1.476       .  S
C284       C4364   1.471       .  S
C285        O286   1.256       .  A
C285       C4334   1.481       .  S
O287        C302   1.253       .  A
O287       Al295   1.888   1_554  S
C288        O298   1.263       .  A
C288        O289   1.257       .  A
C288       C4867   1.488       .  S
O289       Al291   1.916       .  S
O290        C292   1.263       .  A
O290       Al291   1.878       .  S
Al291       O299   1.861   1_565  S
Al291       O301   1.891   1_556  S
Al291       O300   1.770       .  S
C292        O305   1.267       .  A
C292       C4304   1.466       .  S
O293        C303   1.251       .  A
O293       Al295   1.847       .  S
O294        C307   1.268       .  A
O294       Al304   1.934       .  S
Al295       O308   1.890       .  S
Al295       O305   1.916       .  S
Al295       O300   1.780       .  S
O296        C303   1.269       .  A
O296       Al304   1.946       .  S
O297        C306   1.279       .  A
O297       Al304   1.986   1_545  S
O298       Al304   1.947       .  S
O299        C306   1.258       .  A
O300       Al304   1.778       .  S
O301        C302   1.258       .  A
C302       C4314   1.451       .  S
C303       C4347   1.474       .  S
C306       C4324   1.474       .  S
C307        O308   1.260       .  A
C307       C4294   1.484       .  S
O309        C324   1.259       .  A
O309       Al317   1.898       .  S
C310        O320   1.261       .  A
C310        O311   1.255       .  A
C310       C4274   1.482       .  S
O311       Al313   1.907       .  S
O312        C314   1.262       .  A
O312       Al313   1.884       .  S
Al313       O321   1.854       .  S
Al313       O323   1.889       .  S
Al313       O322   1.768       .  S
C314        O327   1.264       .  A
C314       C4264   1.464       .  S
O315        C325   1.254       .  A
O315       Al317   1.850       .  S
O316        C329   1.267       .  A
O316       Al326   1.945       .  S
Al317       O330   1.883       .  S
Al317       O327   1.911       .  S
Al317       O322   1.780       .  S
O318        C325   1.272       .  A
O318       Al326   1.942       .  S
O319        C328   1.277       .  A
O319       Al326   1.975       .  S
O320       Al326   1.939       .  S
O321        C328   1.257       .  A
O322       Al326   1.776       .  S
O323        C324   1.260       .  A
C324       C4254   1.452       .  S
C325       C4284   1.473       .  S
C328       C4967   1.468       .  S
C329        O330   1.257       .  A
C329       C4244   1.480       .  S
O331        C346   1.254       .  A
O331       Al339   1.890   1_545  S
C332        O342   1.263       .  A
C332        O333   1.256       .  A
C332       C4234   1.487       .  S
O333       Al335   1.913       .  S
O334        C336   1.262       .  A
O334       Al335   1.878       .  S
Al335       O343   1.861       .  S
Al335       O345   1.889   1_565  S
Al335       O344   1.769       .  S
C336        O349   1.266       .  A
C336       C4207   1.466       .  S
O337        C347   1.251       .  A
O337       Al339   1.844       .  S
O338        C351   1.269       .  A
O338       Al348   1.938       .  S
Al339       O352   1.893       .  S
Al339       O349   1.919       .  S
Al339       O344   1.779       .  S
O340        C347   1.268       .  A
O340       Al348   1.939       .  S
O341        C350   1.278       .  A
O341       Al348   1.979       .  S
O342       Al348   1.947       .  S
O343        C350   1.258       .  A
O344       Al348   1.778       .  S
O345        C346   1.258       .  A
C346       C4214   1.448       .  S
C347       C4287   1.467       .  S
C350       C4224   1.471       .  S
C351        O352   1.260       .  A
C351       C4194   1.488       .  S
O353        C368   1.252       .  A
O353       Al361   1.886       .  S
C354        O364   1.258       .  A
C354        O355   1.252       .  A
C354       C4174   1.481       .  S
O355       Al357   1.907       .  S
O356        C358   1.265       .  A
O356       Al357   1.880       .  S
Al357       O365   1.856       .  S
Al357       O367   1.894       .  S
Al357       O366   1.774       .  S
C358        O371   1.268       .  A
C358       C4164   1.465       .  S
O359        C369   1.250       .  A
O359       Al361   1.835       .  S
O360        C373   1.265       .  A
O360       Al370   1.929       .  S
Al361       O374   1.881       .  S
Al361       O371   1.920       .  S
Al361       O366   1.780       .  S
O362        C369   1.269       .  A
O362       Al370   1.937       .  S
O363        C372   1.281       .  A
O363       Al370   1.984       .  S
O364       Al370   1.937       .  S
O365        C372   1.260       .  A
O366       Al370   1.780       .  S
O367        C368   1.255       .  A
C368       C4387   1.444       .  S
C369       C4154   1.472       .  S
C372       C4184   1.470       .  S
C373        O374   1.256       .  A
C373       C4144   1.481       .  S
O375        C390   1.256       .  A
O375       Al383   1.889   1_545  S
C376        O386   1.260       .  A
C376        O377   1.255       .  A
C376       C4927   1.479       .  S
O377       Al379   1.908       .  S
O378        C380   1.262       .  A
O378       Al379   1.882       .  S
Al379       O387   1.855   1_655  S
Al379       O389   1.892   1_565  S
Al379       O388   1.768       .  S
C380        O393   1.264       .  A
C380       C4134   1.465       .  S
O381        C391   1.253       .  A
O381       Al383   1.849       .  S
O382        C395   1.265       .  A
O382       Al392   1.925       .  S
Al383       O396   1.886       .  S
Al383       O393   1.914       .  S
Al383       O388   1.781       .  S
O384        C391   1.269       .  A
O384       Al392   1.937       .  S
O385        C394   1.276       .  A
O385       Al392   1.975   1_455  S
O386       Al392   1.933       .  S
O387        C394   1.257       .  A
O388       Al392   1.780       .  S
O389        C390   1.260       .  A
C390       C4114   1.450       .  S
C391       C4157   1.465       .  S
C394       C4124   1.469       .  S
C395        O396   1.258       .  A
C395       C4104   1.478       .  S
O397        C412   1.253       .  A
O397       Al405   1.892       .  S
C398        O408   1.259       .  A
C398        O399   1.250       .  A
C398       C4074   1.482       .  S
O399       Al401   1.901       .  S
O400        C402   1.265       .  A
O400       Al401   1.881       .  S
Al401       O409   1.853       .  S
Al401       O411   1.885       .  S
Al401       O410   1.774       .  S
C402        O415   1.270       .  A
C402       C4064   1.467       .  S
O403        C413   1.252       .  A
O403       Al405   1.842       .  S
O404        C417   1.266       .  A
O404       Al414   1.930       .  S
Al405       O418   1.882       .  S
Al405       O415   1.920       .  S
Al405       O410   1.781       .  S
O406        C413   1.268       .  A
O406       Al414   1.930       .  S
O407        C416   1.281       .  A
O407       Al414   1.981       .  S
O408       Al414   1.946       .  S
O409        C416   1.260       .  A
O410       Al414   1.779       .  S
O411        C412   1.255       .  A
C412       C4084   1.453       .  S
C413       C4094   1.472       .  S
C416       C4407   1.468       .  S
C417        O418   1.257       .  A
C417       C4054   1.484       .  S
O419        C434   1.256       .  A
O419       Al427   1.895   1_455  S
C420        O430   1.260       .  A
C420        O421   1.253       .  A
C420       C4044   1.484       .  S
O421       Al423   1.906       .  S
O422        C424   1.263       .  A
O422       Al423   1.881       .  S
Al423       O431   1.854       .  S
Al423       O433   1.889   1_655  S
Al423       O432   1.772       .  S
C424        O437   1.266       .  A
C424       C4014   1.466       .  S
O425        C435   1.253       .  A
O425       Al427   1.849       .  S
O426        C439   1.266       .  A
O426       Al436   1.929       .  S
Al427       O440   1.890       .  S
Al427       O437   1.919       .  S
Al427       O432   1.782       .  S
O428        C435   1.268       .  A
O428       Al436   1.932       .  S
O429        C438   1.278       .  A
O429       Al436   1.976       .  S
O430       Al436   1.941       .  S
O431        C438   1.258       .  A
O432       Al436   1.781       .  S
O433        C434   1.258       .  A
C434       C4024   1.451       .  S
C435       C4097   1.462       .  S
C438       C4034   1.468       .  S
C439        O440   1.258       .  A
C439       C4004   1.483       .  S
O441        C456   1.254       .  A
O441       Al449   1.887       .  S
C442        O452   1.261       .  A
C442        O443   1.254       .  A
C442       C3984   1.484       .  S
O443       Al445   1.909       .  S
O444        C446   1.262       .  A
O444       Al445   1.879       .  S
Al445       O453   1.858       .  S
Al445       O455   1.891       .  S
Al445       O454   1.771       .  S
C446        O459   1.266       .  A
C446       C4357   1.467       .  S
O447        C457   1.253       .  A
O447       Al449   1.846       .  S
O448        C461   1.267       .  A
O448       Al458   1.935       .  S
Al449       O462   1.888       .  S
Al449       O459   1.921       .  S
Al449       O454   1.783       .  S
O450        C457   1.269       .  A
O450       Al458   1.935       .  S
O451        C460   1.277       .  A
O451       Al458   1.976       .  S
O452       Al458   1.942       .  S
O453        C460   1.258       .  A
O454       Al458   1.779       .  S
O455        C456   1.258       .  A
C456       C4167   1.449       .  S
C457       C3974   1.470       .  S
C460       C3994   1.470       .  S
C461        O462   1.258       .  A
C461       C3964   1.484       .  S
O463        C478   1.255       .  A
O463       Al471   1.887   1_455  S
C464        O474   1.261       .  A
C464        O465   1.254       .  A
C464       C4467   1.484       .  S
O465       Al467   1.905       .  S
O466        C468   1.262       .  A
O466       Al467   1.883       .  S
Al467       O475   1.857   1_556  S
Al467       O477   1.890   1_655  S
Al467       O476   1.770       .  S
C468        O481   1.264       .  A
C468       C3934   1.466       .  S
O469        C479   1.253       .  A
O469       Al471   1.845       .  S
O470        C483   1.266       .  A
O470       Al480   1.936       .  S
Al471       O484   1.882       .  S
Al471       O481   1.916       .  S
Al471       O476   1.784       .  S
O472        C479   1.270       .  A
O472       Al480   1.938       .  S
O473        C482   1.276       .  A
O473       Al480   1.971   1_554  S
O474       Al480   1.941       .  S
O475        C482   1.257       .  A
O476       Al480   1.781       .  S
O477        C478   1.259       .  A
C478       C3944   1.447       .  S
C479       C3977   1.468       .  S
C482       C3954   1.469       .  S
C483        O484   1.256       .  A
C483       C3924   1.483       .  S
O485        C500   1.255       .  A
O485       Al493   1.893       .  S
C486        O496   1.262       .  A
C486        O487   1.258       .  A
C486       C4427   1.483       .  S
O487       Al489   1.921       .  S
O488        C490   1.260       .  A
O488       Al489   1.868       .  S
Al489       O497   1.857       .  S
Al489       O499   1.888       .  S
Al489       O498   1.769       .  S
C490        O503   1.268       .  A
C490       C4087   1.466       .  S
O491        C501   1.252       .  A
O491       Al493   1.853       .  S
O492        C505   1.268       .  A
O492       Al502   1.926       .  S
Al493       O506   1.900       .  S
Al493       O503   1.925       .  S
Al493       O498   1.778       .  S
O494        C501   1.269       .  A
O494       Al502   1.945       .  S
O495        C504   1.278       .  A
O495       Al502   1.987       .  S
O496       Al502   1.938       .  S
O497        C504   1.256       .  A
O498       Al502   1.780       .  S
O499        C500   1.257       .  A
C500       C3894   1.452       .  S
C501       C3914   1.474       .  S
C504       C3907   1.472       .  S
C505        O506   1.263       .  A
C505       C4147   1.483       .  S
O507        C522   1.254       .  A
O507       Al515   1.893       .  S
C508        O518   1.260       .  A
C508        O509   1.254       .  A
C508       C3887   1.482       .  S
O509       Al511   1.909       .  S
O510        C512   1.263       .  A
O510       Al511   1.878       .  S
Al511       O519   1.860   1_655  S
Al511       O521   1.887   1_545  S
Al511       O520   1.772       .  S
C512        O525   1.267   1_545  A
C512       C3874   1.465       .  S
O513        C523   1.253       .  A
O513       Al515   1.856   1_545  S
O514        C527   1.265       .  A
O514       Al524   1.924       .  S
Al515       O528   1.885       .  S
Al515       O525   1.918       .  S
Al515       O520   1.783   1_565  S
O516        C523   1.269       .  A
O516       Al524   1.937       .  S
O517        C526   1.279       .  A
O517       Al524   1.980   1_455  S
O518       Al524   1.939       .  S
O519        C526   1.259       .  A
O520       Al524   1.778       .  S
O521        C522   1.256       .  A
C522       C3854   1.452       .  S
C523       C3917   1.478       .  S
C526       C3864   1.472       .  S
C527        O528   1.258   1_545  A
C527       C4107   1.478       .  S
O529        C544   1.254       .  A
O529       Al537   1.887       .  S
C530        O540   1.262       .  A
C530        O531   1.255       .  A
C530       C4957   1.483       .  S
O531       Al533   1.909       .  S
O532        C534   1.263       .  A
O532       Al533   1.883       .  S
Al533       O541   1.857       .  S
Al533       O543   1.891       .  S
Al533       O542   1.770       .  S
C534        O547   1.266       .  A
C534       C4257   1.467       .  S
O535        C545   1.252       .  A
O535       Al537   1.845       .  S
O536        C549   1.267       .  A
O536       Al546   1.932       .  S
Al537       O550   1.886       .  S
Al537       O547   1.916       .  S
Al537       O542   1.780       .  S
O538        C545   1.267       .  A
O538       Al546   1.930       .  S
O539        C548   1.276       .  A
O539       Al546   1.969       .  S
O540       Al546   1.941       .  S
O541        C548   1.258       .  A
O542       Al546   1.780       .  S
O543        C544   1.258       .  A
C544       C3827   1.450       .  S
C545       C3844   1.466       .  S
C548       C3834   1.465       .  S
C549        O550   1.258       .  A
C549       C4337   1.482       .  S
O551        C566   1.256       .  A
O551       Al559   1.889   1_556  S
C552        O562   1.260       .  A
C552        O553   1.254       .  A
C552       C3804   1.486       .  S
O553       Al555   1.905       .  S
O554        C556   1.261       .  A
O554       Al555   1.884       .  S
Al555       O563   1.851   1_565  S
Al555       O565   1.892   1_554  S
Al555       O564   1.772       .  S
C556        O569   1.263   1_554  A
C556       C3794   1.460       .  S
O557        C567   1.255       .  A
O557       Al559   1.849       .  S
O558        C571   1.265       .  A
O558       Al568   1.934       .  S
Al559       O572   1.881       .  S
Al559       O569   1.912   1_554  S
Al559       O564   1.787       .  S
O560        C567   1.270       .  A
O560       Al568   1.930       .  S
O561        C570   1.276       .  A
O561       Al568   1.969   1_545  S
O562       Al568   1.941       .  S
O563        C570   1.257       .  A
O564       Al568   1.783       .  S
O565        C566   1.260       .  A
C566       C3877   1.449       .  S
C567       C3847   1.468       .  S
C570       C3814   1.467       .  S
C571        O572   1.255       .  A
C571       C4297   1.482       .  S
O573        C588   1.257       .  A
O573       Al581   1.890       .  S
C574        O584   1.261       .  A
C574        O575   1.254       .  A
C574       C4817   1.483       .  S
O575       Al577   1.906       .  S
O576        C578   1.261       .  A
O576       Al577   1.882       .  S
Al577       O585   1.850       .  S
Al577       O587   1.891       .  S
Al577       O586   1.769       .  S
C578        O591   1.264       .  A
C578       C3754   1.463       .  S
O579        C589   1.253       .  A
O579       Al581   1.852       .  S
O580        C593   1.267       .  A
O580       Al590   1.935       .  S
Al581       O594   1.889       .  S
Al581       O591   1.915       .  S
Al581       O586   1.782       .  S
O582        C589   1.271       .  A
O582       Al590   1.943       .  S
O583        C592   1.278       .  A
O583       Al590   1.982       .  S
O584       Al590   1.939       .  S
O585        C592   1.256       .  A
O586       Al590   1.779       .  S
O587        C588   1.260       .  A
C588       C3764   1.449       .  S
C589       C3784   1.464       .  S
C592       C3774   1.471       .  S
C593        O594   1.257       .  A
C593       C3967   1.484       .  S
O595        C610   1.250       .  A
O595       Al603   1.881   1_655  S
C596        O606   1.259       .  A
C596        O597   1.253       .  A
C596       C3734   1.486       .  S
O597       Al599   1.911       .  S
O598        C600   1.265       .  A
O598       Al599   1.879       .  S
Al599       O607   1.855   1_556  S
Al599       O609   1.894   1_455  S
Al599       O608   1.775       .  S
C600        O613   1.269   1_455  A
C600       C3857   1.467       .  S
O601        C611   1.250       .  A
O601       Al603   1.832       .  S
O602        C615   1.267       .  A
O602       Al612   1.936       .  S
Al603       O616   1.880       .  S
Al603       O613   1.924   1_455  S
Al603       O608   1.780       .  S
O604        C611   1.270       .  A
O604       Al612   1.946       .  S
O605        C614   1.282       .  A
O605       Al612   1.990   1_554  S
O606       Al612   1.943       .  S
O607        C614   1.260       .  A
O608       Al612   1.780       .  S
O609        C610   1.255       .  A
C610       C3797   1.444       .  S
C611       C3787   1.477       .  S
C614       C3744   1.473       .  S
C615        O616   1.256       .  A
C615       C3927   1.484       .  S
O617        C632   1.272       .  A
O617       Al625   1.957       .  S
C618        O628   1.257       .  A
C618        O619   1.257       .  A
C618       C3717   1.453       .  S
O619       Al621   1.884       .  S
O620        C622   1.258       .  A
O620       Al621   1.880       .  S
Al621       O629   1.891       .  S
Al621       O631   1.898       .  S
Al621       O630   1.765       .  S
C622        O635   1.268       .  A
C622       C3704   1.471       .  S
O623        C633   1.269       .  A
O623       Al625   1.941       .  S
O624        C637   1.260       .  A
O624       Al634   1.883       .  S
Al625       O638   1.940       .  S
Al625       O635   1.949       .  S
Al625       O630   1.777       .  S
O626        C633   1.260       .  A
O626       Al634   1.895       .  S
O627        C636   1.262       .  A
O627       Al634   1.908       .  S
O628       Al634   1.897       .  S
O629        C636   1.263       .  A
O630       Al634   1.782       .  S
O631        C632   1.258       .  A
C632       C3694   1.483       .  S
C633       C3724   1.484       .  S
C636       C3684   1.469       .  S
C637        O638   1.270       .  A
C637       C3674   1.482       .  S
O639        C654   1.269       .  A
O639       Al647   1.955   1_565  S
C640        O650   1.256       .  A
C640        O641   1.256       .  A
C640       C3664   1.456       .  S
O641       Al643   1.884       .  S
O642        C644   1.259       .  A
O642       Al643   1.878       .  S
Al643       O651   1.888   1_554  S
Al643       O653   1.899   1_545  S
Al643       O652   1.769       .  S
C644        O657   1.271       .  A
C644       C3654   1.473       .  S
O645        C655   1.266       .  A
O645       Al647   1.930       .  S
O646        C659   1.259   1_556  A
O646       Al656   1.882   1_556  S
Al647       O660   1.944       .  S
Al647       O657   1.958       .  S
Al647       O652   1.777       .  S
O648        C655   1.259       .  A
O648       Al656   1.895       .  S
O649        C658   1.264       .  A
O649       Al656   1.911   1_556  S
O650       Al656   1.900       .  S
O651        C658   1.264       .  A
O652       Al656   1.783       .  S
O653        C654   1.256       .  A
C654       C3647   1.483       .  S
C655       C3727   1.475       .  S
C658       C4837   1.469       .  S
C659        O660   1.269       .  A
C659       C3637   1.487       .  S
O661        C676   1.255       .  A
O661       Al669   1.893       .  S
C662        O672   1.259       .  A
C662        O663   1.251       .  A
C662       C3644   1.485       .  S
O663       Al665   1.898       .  S
O664        C666   1.263       .  A
O664       Al665   1.883       .  S
Al665       O673   1.851   1_554  S
Al665       O675   1.886       .  S
Al665       O674   1.775       .  S
C666        O679   1.265       .  A
C666       C3617   1.464       .  S
O667        C677   1.254       .  A
O667       Al669   1.849       .  S
O668        C681   1.265       .  A
O668       Al678   1.935       .  S
Al669       O682   1.874       .  S
Al669       O679   1.913       .  S
Al669       O674   1.787       .  S
O670        C677   1.271       .  A
O670       Al678   1.939       .  S
O671        C680   1.280       .  A
O671       Al678   1.980   1_556  S
O672       Al678   1.943       .  S
O673        C680   1.258       .  A
O674       Al678   1.783       .  S
O675        C676   1.257       .  A
C676       C4307   1.451   1_554  S
C677       C3624   1.475       .  S
C680       C4844   1.471       .  S
C681        O682   1.253       .  A
C681       C3604   1.482       .  S
O683        C698   1.257       .  A
O683       Al691   1.893       .  S
C684        O694   1.261       .  A
C684        O685   1.252       .  A
C684       C3584   1.485       .  S
O685       Al687   1.900       .  S
O686        C688   1.261       .  A
O686       Al687   1.882       .  S
Al687       O695   1.851       .  S
Al687       O697   1.888       .  S
Al687       O696   1.774       .  S
C688        O701   1.264       .  A
C688       C3594   1.465       .  S
O689        C699   1.255       .  A
O689       Al691   1.852       .  S
O690        C703   1.267       .  A
O690       Al700   1.939       .  S
Al691       O704   1.886       .  S
Al691       O701   1.916       .  S
Al691       O696   1.785       .  S
O692        C699   1.271       .  A
O692       Al700   1.942       .  S
O693        C702   1.278       .  A
O693       Al700   1.980       .  S
O694       Al700   1.945       .  S
O695        C702   1.256       .  A
O696       Al700   1.782       .  S
O697        C698   1.259       .  A
C698       C3564   1.451       .  S
C699       C3627   1.471       .  S
C702       C3574   1.472       .  S
C703        O704   1.256       .  A
C703       C3554   1.488       .  S
O705        C720   1.271       .  A
O705       Al713   1.953       .  S
C706        O716   1.255       .  A
C706        O707   1.257       .  A
C706       C4417   1.454       .  S
O707       Al709   1.884       .  S
O708        C710   1.258       .  A
O708       Al709   1.884       .  S
Al709       O717   1.892       .  S
Al709       O719   1.902       .  S
Al709       O718   1.767       .  S
C710        O723   1.270       .  A
C710       C3904   1.479       .  S
O711        C721   1.266       .  A
O711       Al713   1.926       .  S
O712        C725   1.259       .  A
O712       Al722   1.887       .  S
Al713       O726   1.945       .  S
Al713       O723   1.959       .  S
Al713       O718   1.776       .  S
O714        C721   1.261       .  A
O714       Al722   1.902       .  S
O715        C724   1.265       .  A
O715       Al722   1.915       .  S
O716       Al722   1.896       .  S
O717        C724   1.264       .  A
O718       Al722   1.782       .  S
O719        C720   1.259       .  A
C720       C3544   1.482       .  S
C721       C3524   1.472       .  S
C724       C3534   1.473       .  S
C725        O726   1.270       .  A
C725       C3514   1.487       .  S
O727        C742   1.274       .  A
O727       Al735   1.961   1_554  S
C728        O738   1.255       .  A
C728        O729   1.257       .  A
C728       C4857   1.452       .  S
O729       Al731   1.882       .  S
O730        C732   1.257       .  A
O730       Al731   1.882       .  S
Al731       O739   1.884       .  S
Al731       O741   1.908   1_556  S
Al731       O740   1.765       .  S
C732        O745   1.271       .  A
C732       C4327   1.479       .  S
O733        C743   1.271       .  A
O733       Al735   1.937       .  S
O734        C747   1.258       .  A
O734       Al744   1.885       .  S
Al735       O748   1.953       .  S
Al735       O745   1.966       .  S
Al735       O740   1.776       .  S
O736        C743   1.263       .  A
O736       Al744   1.900       .  S
O737        C746   1.263       .  A
O737       Al744   1.908       .  S
O738       Al744   1.895       .  S
O739        C746   1.262       .  A
O740       Al744   1.779       .  S
O741        C742   1.260       .  A
C742       C3504   1.487       .  S
C743       C3527   1.483       .  S
C746       C3667   1.469       .  S
C747        O748   1.270       .  A
C747       C3494   1.489       .  S
O749        C764   1.257       .  A
O749       Al757   1.892       .  S
C750        O760   1.261       .  A
C750        O751   1.256       .  A
C750       C3464   1.483       .  S
O751       Al753   1.912       .  S
O752        C754   1.262       .  A
O752       Al753   1.883       .  S
Al753       O761   1.859   1_455  S
Al753       O763   1.894       .  S
Al753       O762   1.767       .  S
C754        O767   1.265       .  A
C754       C3474   1.466       .  S
O755        C765   1.252       .  A
O755       Al757   1.846       .  S
O756        C769   1.266       .  A
O756       Al766   1.930       .  S
Al757       O770   1.899       .  S
Al757       O767   1.917       .  S
Al757       O762   1.780       .  S
O758        C765   1.269       .  A
O758       Al766   1.940       .  S
O759        C768   1.276       .  A
O759       Al766   1.973   1_655  S
O760       Al766   1.938       .  S
O761        C768   1.257       .  A
O762       Al766   1.777       .  S
O763        C764   1.260       .  A
C764       C3937   1.449       .  S
C765       C3484   1.455       .  S
C768       C4447   1.470       .  S
C769        O770   1.259       .  A
C769       C3457   1.477       .  S
O771        C786   1.252       .  A
O771       Al779   1.883       .  S
C772        O782   1.259       .  A
C772        O773   1.252       .  A
C772       C3444   1.484       .  S
O773       Al775   1.902       .  S
O774        C776   1.262       .  A
O774       Al775   1.880       .  S
Al775       O783   1.851       .  S
Al775       O785   1.889       .  S
Al775       O784   1.774       .  S
C776        O789   1.267       .  A
C776       C3414   1.465       .  S
O777        C787   1.252       .  A
O777       Al779   1.837       .  S
O778        C791   1.266       .  A
O778       Al788   1.940       .  S
Al779       O792   1.876       .  S
Al779       O789   1.923       .  S
Al779       O784   1.786       .  S
O780        C787   1.270       .  A
O780       Al788   1.938       .  S
O781        C790   1.280       .  A
O781       Al788   1.983       .  S
O782       Al788   1.941       .  S
O783        C790   1.258       .  A
O784       Al788   1.782       .  S
O785        C786   1.257       .  A
C786       C3424   1.447       .  S
C787       C3487   1.470       .  S
C790       C3434   1.471       .  S
C791        O792   1.254       .  A
C791       C3404   1.484       .  S
O793        C808   1.271       .  A
O793       Al801   1.950       .  S
C794        O804   1.259       .  A
C794        O795   1.259       .  A
C794       C4947   1.456       .  S
O795       Al797   1.888       .  S
O796        C798   1.258       .  A
O796       Al797   1.883       .  S
Al797       O805   1.893       .  S
Al797       O807   1.907       .  S
Al797       O806   1.763       .  S
C798        O811   1.266       .  A
C798       C3837   1.472       .  S
O799        C809   1.268       .  A
O799       Al801   1.937       .  S
O800        C813   1.261       .  A
O800       Al810   1.885       .  S
Al801       O814   1.938       .  S
Al801       O811   1.943       .  S
Al801       O806   1.774       .  S
O802        C809   1.260       .  A
O802       Al810   1.898       .  S
O803        C812   1.262       .  A
O803       Al810   1.908       .  S
O804       Al810   1.904       .  S
O805        C812   1.263       .  A
O806       Al810   1.780       .  S
O807        C808   1.260       .  A
C808       C3394   1.484       .  S
C809       C3374   1.479       .  S
C812       C3384   1.470       .  S
C813        O814   1.269       .  A
C813       C3364   1.479       .  S
O815        C830   1.270       .  A
O815       Al823   1.941   1_455  S
C816        O826   1.259       .  A
C816        O817   1.260       .  A
C816       C4457   1.453       .  S
O817       Al819   1.890       .  S
O818        C820   1.257       .  A
O818       Al819   1.884       .  S
Al819       O827   1.892       .  S
Al819       O829   1.906   1_655  S
Al819       O828   1.761       .  S
C820        O833   1.267       .  A
C820       C3957   1.474       .  S
O821        C831   1.268       .  A
O821       Al823   1.935       .  S
O822        C835   1.260       .  A
O822       Al832   1.882       .  S
Al823       O836   1.945       .  S
Al823       O833   1.948       .  S
Al823       O828   1.774       .  S
O824        C831   1.262       .  A
O824       Al832   1.902       .  S
O825        C834   1.261       .  A
O825       Al832   1.909       .  S
O826       Al832   1.897       .  S
O827        C834   1.262       .  A
O828       Al832   1.780       .  S
O829        C830   1.261       .  A
C830       C3354   1.478       .  S
C831       C3377   1.482       .  S
C834       C3344   1.470       .  S
C835        O836   1.271       .  A
C835       C3334   1.480       .  S
O837        C852   1.269       .  A
O837       Al845   1.944       .  S
C838        O848   1.260       .  A
C838        O839   1.260       .  A
C838       C3537   1.459       .  S
O839       Al841   1.891       .  S
O840        C842   1.256       .  A
O840       Al841   1.876       .  S
Al841       O849   1.890       .  S
Al841       O851   1.907       .  S
Al841       O850   1.763       .  S
C842        O855   1.268       .  A
C842       C3324   1.473       .  S
O843        C853   1.266       .  A
O843       Al845   1.932       .  S
O844        C857   1.261       .  A
O844       Al854   1.885       .  S
Al845       O858   1.950       .  S
Al845       O855   1.955       .  S
Al845       O850   1.774       .  S
O846        C853   1.260       .  A
O846       Al854   1.897       .  S
O847        C856   1.262       .  A
O847       Al854   1.908       .  S
O848       Al854   1.907       .  S
O849        C856   1.262       .  A
O850       Al854   1.779       .  S
O851        C852   1.260       .  A
C852       C4077   1.481       .  S
C853       C3314   1.474       .  S
C856       C4397   1.469       .  S
C857        O858   1.272       .  A
C857       C3304   1.485       .  S
O859        C874   1.271       .  A
O859       Al867   1.948       .  S
C860        O870   1.259       .  A
C860        O861   1.260       .  A
C860       C3264   1.456       .  S
O861       Al863   1.890       .  S
O862        C864   1.258       .  A
O862       Al863   1.886       .  S
Al863       O871   1.891       .  S
Al863       O873   1.905       .  S
Al863       O872   1.762       .  S
C864        O877   1.268       .  A
C864       C3274   1.476       .  S
O865        C875   1.269       .  A
O865       Al867   1.938       .  S
O866        C879   1.261       .  A
O866       Al876   1.887       .  S
Al867       O880   1.953       .  S
Al867       O877   1.952       .  S
Al867       O872   1.773       .  S
O868        C875   1.261       .  A
O868       Al876   1.897       .  S
O869        C878   1.261       .  A
O869       Al876   1.907       .  S
O870       Al876   1.904       .  S
O871        C878   1.262       .  A
O872       Al876   1.779       .  S
O873        C874   1.261       .  A
C874       C3294   1.481       .  S
C875       C3317   1.484       .  S
C878       C3284   1.469       .  S
C879        O880   1.272       .  A
C879       C3254   1.486       .  S
O881        C896   1.271       .  A
O881       Al889   1.946       .  S
C882        O892   1.260       .  A
C882        O883   1.259       .  A
C882       C3387   1.456       .  S
O883       Al885   1.889       .  S
O884        C886   1.258       .  A
O884       Al885   1.886       .  S
Al885       O893   1.894       .  S
Al885       O895   1.903       .  S
Al885       O894   1.762       .  S
C886        O899   1.268       .  A
C886       C3244   1.478       .  S
O887        C897   1.268       .  A
O887       Al889   1.935       .  S
O888        C901   1.261       .  A
O888       Al898   1.885       .  S
Al889       O902   1.952       .  S
Al889       O899   1.955       .  S
Al889       O894   1.776       .  S
O890        C897   1.260       .  A
O890       Al898   1.891       .  S
O891        C900   1.261       .  A
O891       Al898   1.903       .  S
O892       Al898   1.905       .  S
O893        C900   1.263       .  A
O894       Al898   1.780       .  S
O895        C896   1.260       .  A
C896       C4277   1.480       .  S
C897       C3234   1.482       .  S
C900       C4977   1.468       .  S
C901        O902   1.272       .  A
C901       C3224   1.485       .  S
O903        C918   1.268       .  A
O903       Al911   1.937       .  S
C904        O914   1.258       .  A
C904        O905   1.258       .  A
C904       C3194   1.455       .  S
O905       Al907   1.888       .  S
O906        C908   1.258       .  A
O906       Al907   1.885       .  S
Al907       O915   1.890       .  S
Al907       O917   1.903       .  S
Al907       O916   1.763       .  S
C908        O921   1.269       .  A
C908       C3204   1.477       .  S
O909        C919   1.263       .  A
O909       Al911   1.914       .  S
O910        C923   1.260       .  A
O910       Al920   1.884       .  S
Al911       O924   1.953       .  S
Al911       O921   1.955       .  S
Al911       O916   1.775       .  S
O912        C919   1.261       .  A
O912       Al920   1.903       .  S
O913        C922   1.264       .  A
O913       Al920   1.914       .  S
O914       Al920   1.902       .  S
O915        C922   1.263       .  A
O916       Al920   1.780       .  S
O917        C918   1.260       .  A
C918       C3214   1.474       .  S
C919       C3237   1.463       .  S
C922       C3267   1.470       .  S
C923        O924   1.271       .  A
C923       C3187   1.487       .  S
O925        C940   1.271       .  A
O925       Al933   1.950       .  S
C926        O936   1.259       .  A
C926        O927   1.259       .  A
C926       C3154   1.457       .  S
O927       Al929   1.888       .  S
O928        C930   1.257       .  A
O928       Al929   1.882       .  S
Al929       O937   1.890       .  S
Al929       O939   1.908       .  S
Al929       O938   1.763       .  S
C930        O943   1.269       .  A
C930       C3147   1.475       .  S
O931        C941   1.269       .  A
O931       Al933   1.938       .  S
O932        C945   1.260       .  A
O932       Al942   1.888       .  S
Al933       O946   1.948       .  S
Al933       O943   1.957       .  S
Al933       O938   1.771       .  S
O934        C941   1.261       .  A
O934       Al942   1.897       .  S
O935        C944   1.262       .  A
O935       Al942   1.905       .  S
O936       Al942   1.905       .  S
O937        C944   1.263       .  A
O938       Al942   1.777       .  S
O939        C940   1.260       .  A
C940       C3164   1.482       .  S
C941       C3174   1.480       .  S
C944       C4787   1.469       .  S
C945        O946   1.271       .  A
C945       C3134   1.486       .  S
O947        C962   1.271       .  A
O947       Al955   1.949       .  S
C948        O958   1.259       .  A
C948        O949   1.259       .  A
C948       C3287   1.455       .  S
O949       Al951   1.887       .  S
O950        C952   1.258       .  A
O950       Al951   1.883       .  S
Al951       O959   1.891       .  S
Al951       O961   1.905       .  S
Al951       O960   1.762       .  S
C952        O965   1.268       .  A
C952       C3124   1.475       .  S
O953        C963   1.268       .  A
O953       Al955   1.936       .  S
O954        C967   1.261       .  A
O954       Al964   1.886       .  S
Al955       O968   1.947       .  S
Al955       O965   1.950       .  S
Al955       O960   1.773       .  S
O956        C963   1.261       .  A
O956       Al964   1.898       .  S
O957        C966   1.262       .  A
O957       Al964   1.908       .  S
O958       Al964   1.904       .  S
O959        C966   1.263       .  A
O960       Al964   1.779       .  S
O961        C962   1.260       .  A
C962       C3117   1.481       .  S
C963       C3177   1.480       .  S
C966       C3197   1.469       .  S
C967        O968   1.271       .  A
C967       C3104   1.484       .  S
O969        C984   1.255       .  A
O969       Al977   1.885       .  S
C970        O980   1.263       .  A
C970        O971   1.256       .  A
C970       C3077   1.485       .  S
O971       Al973   1.912       .  S
O972        C974   1.262       .  A
O972       Al973   1.884       .  S
Al973       O981   1.858       .  S
Al973       O983   1.892       .  S
Al973       O982   1.769       .  S
C974        O987   1.265       .  A
C974       C3567   1.467       .  S
O975        C985   1.252       .  A
O975       Al977   1.849       .  S
O976        C989   1.267       .  A
O976       Al986   1.931       .  S
Al977       O990   1.894       .  S
Al977       O987   1.913       .  S
Al977       O982   1.779       .  S
O978        C985   1.268       .  A
O978       Al986   1.933       .  S
O979        C988   1.275       .  A
O979       Al986   1.969       .  S
O980       Al986   1.942       .  S
O981        C988   1.257       .  A
O982       Al986   1.777       .  S
O983        C984   1.259       .  A
C984       C3084   1.449       .  S
C985       C3094   1.464       .  S
C988       C4537   1.468       .  S
C989        O990   1.260       .  A
C989       C3064   1.486       .  S
O991       C1006   1.255       .  A
O991       Al999   1.887       .  S
C992       O1002   1.261       .  A
C992        O993   1.255       .  A
C992       C3114   1.483       .  S
O993       Al995   1.911       .  S
O994        C996   1.261       .  A
O994       Al995   1.878       .  S
Al995      O1003   1.854       .  S
Al995      O1005   1.892       .  S
Al995      O1004   1.768       .  S
C996       O1009   1.266       .  A
C996       C3054   1.466       .  S
O997       C1007   1.252       .  A
O997       Al999   1.838       .  S
O998       C1011   1.266       .  A
O998      Al1008   1.936       .  S
Al999      O1012   1.889       .  S
Al999      O1009   1.923       .  S
Al999      O1004   1.781       .  S
O1000      C1007   1.271       .  A
O1000     Al1008   1.945       .  S
O1001      C1010   1.278       .  A
O1001     Al1008   1.980       .  S
O1002     Al1008   1.939       .  S
O1003      C1010   1.257       .  A
O1004     Al1008   1.776       .  S
O1005      C1006   1.260       .  A
C1006      C3044   1.448       .  S
C1007      C3097   1.471       .  S
C1010      C3207   1.470       .  S
C1011      O1012   1.257       .  A
C1011      C3034   1.476       .  S
O1013      C1028   1.254       .  A
O1013     Al1021   1.889       .  S
C1014      O1024   1.261       .  A
C1014      O1015   1.255       .  A
C1014      C3014   1.484       .  S
O1015     Al1017   1.914       .  S
O1016      C1018   1.262       .  A
O1016     Al1017   1.871       .  S
Al1017     O1025   1.855       .  S
Al1017     O1027   1.891       .  S
Al1017     O1026   1.770       .  S
C1018      O1031   1.267       .  A
C1018      C3427   1.463       .  S
O1019      C1029   1.252       .  A
O1019     Al1021   1.845       .  S
O1020      C1033   1.267       .  A
O1020     Al1030   1.928       .  S
Al1021     O1034   1.890       .  S
Al1021     O1031   1.920       .  S
Al1021     O1026   1.780       .  S
O1022      C1029   1.269       .  A
O1022     Al1030   1.938       .  S
O1023      C1032   1.279       .  A
O1023     Al1030   1.983       .  S
O1024     Al1030   1.940       .  S
O1025      C1032   1.258       .  A
O1026     Al1030   1.778       .  S
O1027      C1028   1.257       .  A
C1028      C3004   1.450       .  S
C1029      C3024   1.470       .  S
C1032      C4747   1.470       .  S
C1033      O1034   1.259       .  A
C1033      C2994   1.481       .  S
O1035      C1050   1.255       .  A
O1035     Al1043   1.891       .  S
C1036      O1046   1.260       .  A
C1036      O1037   1.254       .  A
C1036      C3297   1.482       .  S
O1037     Al1039   1.908       .  S
O1038      C1040   1.262       .  A
O1038     Al1039   1.880       .  S
Al1039     O1047   1.855       .  S
Al1039     O1049   1.889       .  S
Al1039     O1048   1.771       .  S
C1040      O1053   1.265       .  A
C1040      C2984   1.465       .  S
O1041      C1051   1.253       .  A
O1041     Al1043   1.848       .  S
O1042      C1055   1.266       .  A
O1042     Al1052   1.930       .  S
Al1043     O1056   1.882       .  S
Al1043     O1053   1.916       .  S
Al1043     O1048   1.783       .  S
O1044      C1051   1.269       .  A
O1044     Al1052   1.935       .  S
O1045      C1054   1.277       .  A
O1045     Al1052   1.974       .  S
O1046     Al1052   1.938       .  S
O1047      C1054   1.258       .  A
O1048     Al1052   1.782       .  S
O1049      C1050   1.258       .  A
C1050      C3057   1.450       .  S
C1051      C3027   1.471       .  S
C1054      C3127   1.468       .  S
C1055      O1056   1.257       .  A
C1055      C2974   1.479       .  S
O1057      C1072   1.256       .  A
O1057     Al1065   1.895       .  S
C1058      O1068   1.260       .  A
C1058      O1059   1.252       .  A
C1058      C2944   1.482       .  S
O1059     Al1061   1.901       .  S
O1060      C1062   1.263       .  A
O1060     Al1061   1.883       .  S
Al1061     O1069   1.852       .  S
Al1061     O1071   1.884       .  S
Al1061     O1070   1.772       .  S
C1062      O1075   1.267       .  A
C1062      C2934   1.468       .  S
O1063      C1073   1.254       .  A
O1063     Al1065   1.849       .  S
O1064      C1077   1.266       .  A
O1064     Al1074   1.933       .  S
Al1065     O1078   1.886       .  S
Al1065     O1075   1.921       .  S
Al1065     O1070   1.781       .  S
O1066      C1073   1.270       .  A
O1066     Al1074   1.939       .  S
O1067      C1076   1.280       .  A
O1067     Al1074   1.985       .  S
O1068     Al1074   1.941       .  S
O1069      C1076   1.258       .  A
O1070     Al1074   1.779       .  S
O1071      C1072   1.257       .  A
C1072      C2954   1.450       .  S
C1073      C2964   1.471       .  S
C1076      C4647   1.471       .  S
C1077      O1078   1.257       .  A
C1077      C2924   1.484       .  S
O1079      C1094   1.255       .  A
O1079     Al1087   1.891       .  S
C1080      O1090   1.258       .  A
C1080      O1081   1.254       .  A
C1080      C3217   1.476       .  S
O1081     Al1083   1.907       .  S
O1082      C1084   1.263       .  A
O1082     Al1083   1.878       .  S
Al1083     O1091   1.858       .  S
Al1083     O1093   1.889       .  S
Al1083     O1092   1.769       .  S
C1084      O1097   1.266       .  A
C1084      C3047   1.464       .  S
O1085      C1095   1.252       .  A
O1085     Al1087   1.846       .  S
O1086      C1099   1.264       .  A
O1086     Al1096   1.919       .  S
Al1087     O1100   1.884       .  S
Al1087     O1097   1.917       .  S
Al1087     O1092   1.782       .  S
O1088      C1095   1.269       .  A
O1088     Al1096   1.939       .  S
O1089      C1098   1.278       .  A
O1089     Al1096   1.979       .  S
O1090     Al1096   1.928       .  S
O1091      C1098   1.258       .  A
O1092     Al1096   1.780       .  S
O1093      C1094   1.257       .  A
C1094      C2987   1.449       .  S
C1095      C2967   1.473       .  S
C1098      C3277   1.470       .  S
C1099      O1100   1.258       .  A
C1099      C2914   1.476       .  S
O1101      C1116   1.254       .  A
O1101     Al1109   1.890       .  S
C1102      O1112   1.262       .  A
C1102      O1103   1.253       .  A
C1102      C2894   1.486       .  S
O1103     Al1105   1.906       .  S
O1104      C1106   1.263       .  A
O1104     Al1105   1.879       .  S
Al1105     O1113   1.855   1_545  S
Al1105     O1115   1.888       .  S
Al1105     O1114   1.771       .  S
C1106      O1119   1.266       .  A
C1106      C2884   1.465       .  S
O1107      C1117   1.252       .  A
O1107     Al1109   1.845       .  S
O1108      C1121   1.268       .  A
O1108     Al1118   1.938       .  S
Al1109     O1122   1.883       .  S
Al1109     O1119   1.916       .  S
Al1109     O1114   1.783       .  S
O1110      C1117   1.269       .  A
O1110     Al1118   1.936       .  S
O1111      C1120   1.278       .  A
O1111     Al1118   1.975   1_565  S
O1112     Al1118   1.947       .  S
O1113      C1120   1.258       .  A
O1114     Al1118   1.781       .  S
O1115      C1116   1.257       .  A
C1116      C4137   1.449   1_545  S
C1117      C2904   1.470       .  S
C1120      C4907   1.467       .  S
C1121      O1122   1.257       .  A
C1121      C2874   1.486       .  S
O1123      C1138   1.256       .  A
O1123     Al1131   1.894       .  S
C1124      O1134   1.260       .  A
C1124      O1125   1.253       .  A
C1124      C2854   1.482       .  S
O1125     Al1127   1.906       .  S
O1126      C1128   1.263       .  A
O1126     Al1127   1.881       .  S
Al1127     O1135   1.855       .  S
Al1127     O1137   1.890       .  S
Al1127     O1136   1.772       .  S
C1128      O1141   1.265       .  A
C1128      C2864   1.465       .  S
O1129      C1139   1.254       .  A
O1129     Al1131   1.852       .  S
O1130      C1143   1.265       .  A
O1130     Al1140   1.928       .  S
Al1131     O1144   1.885       .  S
Al1131     O1141   1.917       .  S
Al1131     O1136   1.784       .  S
O1132      C1139   1.268       .  A
O1132     Al1140   1.930       .  S
O1133      C1142   1.277       .  A
O1133     Al1140   1.971       .  S
O1134     Al1140   1.938       .  S
O1135      C1142   1.258       .  A
O1136     Al1140   1.782       .  S
O1137      C1138   1.258       .  A
C1138      C2937   1.452       .  S
C1139      C2907   1.469       .  S
C1142      C2847   1.467       .  S
C1143      O1144   1.257       .  A
C1143      C2834   1.481       .  S
O1145      C1160   1.271       .  A
O1145     Al1153   1.950       .  S
C1146      O1156   1.259       .  A
C1146      O1147   1.259       .  A
C1146      C4807   1.457       .  S
O1147     Al1149   1.889       .  S
O1148      C1150   1.258       .  A
O1148     Al1149   1.885       .  S
Al1149     O1157   1.893       .  S
Al1149     O1159   1.907       .  S
Al1149     O1158   1.764       .  S
C1150      O1163   1.269       .  A
C1150      C3777   1.479       .  S
O1151      C1161   1.268       .  A
O1151     Al1153   1.934       .  S
O1152      C1165   1.261       .  A
O1152     Al1162   1.889       .  S
Al1153     O1166   1.952       .  S
Al1153     O1163   1.956       .  S
Al1153     O1158   1.774       .  S
O1154      C1161   1.261       .  A
O1154     Al1162   1.898       .  S
O1155      C1164   1.262       .  A
O1155     Al1162   1.908       .  S
O1156     Al1162   1.904       .  S
O1157      C1164   1.263       .  A
O1158     Al1162   1.780       .  S
O1159      C1160   1.260       .  A
C1160      C2824   1.483       .  S
C1161      C2814   1.480       .  S
C1164      C3157   1.470       .  S
C1165      O1166   1.272       .  A
C1165      C2804   1.488       .  S
O1167      C1182   1.270       .  A
O1167     Al1175   1.947   1_545  S
C1168      O1178   1.260       .  A
C1168      O1169   1.259       .  A
C1168      C4917   1.457       .  S
O1169     Al1171   1.889       .  S
O1170      C1172   1.258       .  A
O1170     Al1171   1.883       .  S
Al1171     O1179   1.893       .  S
Al1171     O1181   1.905   1_565  S
Al1171     O1180   1.763       .  S
C1172      O1185   1.268       .  A
C1172      C4127   1.476       .  S
O1173      C1183   1.267       .  A
O1173     Al1175   1.935       .  S
O1174      C1187   1.260       .  A
O1174     Al1184   1.885       .  S
Al1175     O1188   1.950       .  S
Al1175     O1185   1.952       .  S
Al1175     O1180   1.772       .  S
O1176      C1183   1.260       .  A
O1176     Al1184   1.896       .  S
O1177      C1186   1.262       .  A
O1177     Al1184   1.905       .  S
O1178     Al1184   1.907       .  S
O1179      C1186   1.263       .  A
O1180     Al1184   1.779       .  S
O1181      C1182   1.260       .  A
C1182      C2794   1.481       .  S
C1183      C2817   1.479       .  S
C1186      C2784   1.469       .  S
C1187      O1188   1.272       .  A
C1187      C2774   1.485       .  S
O1189      C1204   1.259       .  A
O1189     Al1197   1.892       .  S
C1190      O1200   1.264       .  A
C1190      O1191   1.257       .  A
C1190      C4667   1.485       .  S
O1191     Al1193   1.910       .  S
O1192      C1194   1.262       .  A
O1192     Al1193   1.891       .  S
Al1193     O1201   1.861       .  S
Al1193     O1203   1.894       .  S
Al1193     O1202   1.766       .  S
C1194      O1207   1.261       .  A
C1194      C2957   1.465       .  S
O1195      C1205   1.254       .  A
O1195     Al1197   1.850       .  S
O1196      C1209   1.270       .  A
O1196     Al1206   1.954       .  S
Al1197     O1210   1.882       .  S
Al1197     O1207   1.903       .  S
Al1197     O1202   1.775       .  S
O1198      C1205   1.269       .  A
O1198     Al1206   1.936       .  S
O1199      C1208   1.274       .  A
O1199     Al1206   1.965       .  S
O1200     Al1206   1.945       .  S
O1201      C1208   1.257       .  A
O1202     Al1206   1.777       .  S
O1203      C1204   1.262       .  A
C1204      C2867   1.450       .  S
C1205      C2764   1.459       .  S
C1208      C2754   1.468       .  S
C1209      O1210   1.259       .  A
C1209      C4247   1.492       .  S
O1211      C1226   1.253       .  A
O1211     Al1219   1.889       .  S
C1212      O1222   1.260       .  A
C1212      O1213   1.253       .  A
C1212      C3507   1.491       .  S
O1213     Al1215   1.911       .  S
O1214      C1216   1.263       .  A
O1214     Al1215   1.877       .  S
Al1215     O1223   1.858       .  S
Al1215     O1225   1.889   1_545  S
Al1215     O1224   1.773       .  S
C1216      O1229   1.268   1_545  A
C1216      C4317   1.465       .  S
O1217      C1227   1.252       .  A
O1217     Al1219   1.841   1_545  S
O1218      C1231   1.267       .  A
O1218     Al1228   1.937       .  S
Al1219     O1232   1.883   1_565  S
Al1219     O1229   1.925       .  S
Al1219     O1224   1.786   1_565  S
O1220      C1227   1.267       .  A
O1220     Al1228   1.925       .  S
O1221      C1230   1.279       .  A
O1221     Al1228   1.976       .  S
O1222     Al1228   1.947       .  S
O1223      C1230   1.260       .  A
O1224     Al1228   1.780       .  S
O1225      C1226   1.256       .  A
C1226      C3614   1.447       .  S
C1227      C2767   1.469       .  S
C1230      C3657   1.470       .  S
C1231      O1232   1.256       .  A
C1231      C4197   1.484       .  S
O1233      C1248   1.254       .  A
O1233     Al1241   1.887       .  S
C1234      O1244   1.260       .  A
C1234      O1235   1.255       .  A
C1234      C3167   1.484       .  S
O1235     Al1237   1.915       .  S
O1236      C1238   1.263       .  A
O1236     Al1237   1.876       .  S
Al1237     O1245   1.853       .  S
Al1237     O1247   1.890       .  S
Al1237     O1246   1.773       .  S
C1238      O1251   1.268       .  A
C1238      C2744   1.465       .  S
O1239      C1249   1.251       .  A
O1239     Al1241   1.842       .  S
O1240      C1253   1.268       .  A
O1240     Al1250   1.933       .  S
Al1241     O1254   1.890       .  S
Al1241     O1251   1.918       .  S
Al1241     O1246   1.778       .  S
O1242      C1249   1.269       .  A
O1242     Al1250   1.944       .  S
O1243      C1252   1.281       .  A
O1243     Al1250   1.990       .  S
O1244     Al1250   1.940       .  S
O1245      C1252   1.257       .  A
O1246     Al1250   1.779       .  S
O1247      C1248   1.256       .  A
C1248      C3757   1.448       .  S
C1249      C2734   1.475       .  S
C1252      C4797   1.472       .  S
C1253      O1254   1.259       .  A
C1253      C2724   1.485       .  S
O1255      C1270   1.255       .  A
O1255     Al1263   1.889   1_554  S
C1256      O1266   1.260       .  A
C1256      O1257   1.254       .  A
C1256      C2694   1.481       .  S
O1257     Al1259   1.905       .  S
O1258      C1260   1.262       .  A
O1258     Al1259   1.883       .  S
Al1259     O1267   1.853       .  S
Al1259     O1269   1.885   1_556  S
Al1259     O1268   1.771       .  S
C1260      O1273   1.265       .  A
C1260      C2684   1.466       .  S
O1261      C1271   1.253       .  A
O1261     Al1263   1.849       .  S
O1262      C1275   1.265       .  A
O1262     Al1272   1.929       .  S
Al1263     O1276   1.883       .  S
Al1263     O1273   1.916       .  S
Al1263     O1268   1.782       .  S
O1264      C1271   1.271       .  A
O1264     Al1272   1.944       .  S
O1265      C1274   1.278       .  A
O1265     Al1272   1.982       .  S
O1266     Al1272   1.937       .  S
O1267      C1274   1.257       .  A
O1268     Al1272   1.778       .  S
O1269      C1270   1.258       .  A
C1270      C2704   1.447       .  S
C1271      C2737   1.473       .  S
C1274      C2714   1.472       .  S
C1275      O1276   1.257       .  A
C1275      C2674   1.480       .  S
O1277      C1292   1.256       .  A
O1277     Al1285   1.891       .  S
C1278      O1288   1.260       .  A
C1278      O1279   1.254       .  A
C1278      C3547   1.484       .  S
O1279     Al1281   1.904       .  S
O1280      C1282   1.262       .  A
O1280     Al1281   1.883       .  S
Al1281     O1289   1.855       .  S
Al1281     O1291   1.892       .  S
Al1281     O1290   1.772       .  S
C1282      O1295   1.265       .  A
C1282      C3897   1.467       .  S
O1283      C1293   1.254       .  A
O1283     Al1285   1.850       .  S
O1284      C1297   1.265       .  A
O1284     Al1294   1.928       .  S
Al1285     O1298   1.886       .  S
Al1285     O1295   1.920       .  S
Al1285     O1290   1.785       .  S
O1286      C1293   1.269       .  A
O1286     Al1294   1.932       .  S
O1287      C1296   1.276       .  A
O1287     Al1294   1.970       .  S
O1288     Al1294   1.939       .  S
O1289      C1296   1.258       .  A
O1290     Al1294   1.781       .  S
O1291      C1292   1.259       .  A
C1292      C4067   1.451       .  S
C1293      C2664   1.464       .  S
C1296      C3327   1.468       .  S
C1297      O1298   1.256       .  A
C1297      C2837   1.481       .  S
O1299      C1314   1.254       .  A
O1299     Al1307   1.891       .  S
C1300      O1310   1.261       .  A
C1300      O1301   1.253       .  A
C1300      C4717   1.484       .  S
O1301     Al1303   1.902       .  S
O1302      C1304   1.262       .  A
O1302     Al1303   1.880       .  S
Al1303     O1311   1.854   1_545  S
Al1303     O1313   1.887       .  S
Al1303     O1312   1.772       .  S
C1304      O1317   1.266       .  A
C1304      C2644   1.466       .  S
O1305      C1315   1.253       .  A
O1305     Al1307   1.846       .  S
O1306      C1319   1.268       .  A
O1306     Al1316   1.938       .  S
Al1307     O1320   1.881       .  S
Al1307     O1317   1.919       .  S
Al1307     O1312   1.784       .  S
O1308      C1315   1.268       .  A
O1308     Al1316   1.931       .  S
O1309      C1318   1.277       .  A
O1309     Al1316   1.975   1_565  S
O1310     Al1316   1.946       .  S
O1311      C1318   1.258       .  A
O1312     Al1316   1.782       .  S
O1313      C1314   1.257       .  A
C1314      C4204   1.451   1_545  S
C1315      C2667   1.471       .  S
C1318      C2654   1.466       .  S
C1319      O1320   1.256       .  A
C1319      C2877   1.484       .  S
O1321      C1336   1.252       .  A
O1321     Al1329   1.886       .  S
C1322      O1332   1.260       .  A
C1322      O1323   1.253       .  A
C1322      C4557   1.485       .  S
O1323     Al1325   1.912       .  S
O1324      C1326   1.263       .  A
O1324     Al1325   1.874       .  S
Al1325     O1333   1.854       .  S
Al1325     O1335   1.893       .  S
Al1325     O1334   1.774       .  S
C1326      O1339   1.268       .  A
C1326      C3087   1.464       .  S
O1327      C1337   1.251       .  A
O1327     Al1329   1.839       .  S
O1328      C1341   1.267       .  A
O1328     Al1338   1.935       .  S
Al1329     O1342   1.882       .  S
Al1329     O1339   1.921       .  S
Al1329     O1334   1.782       .  S
O1330      C1337   1.271       .  A
O1330     Al1338   1.948       .  S
O1331      C1340   1.283       .  A
O1331     Al1338   1.993       .  S
O1332     Al1338   1.943       .  S
O1333      C1340   1.258       .  A
O1334     Al1338   1.779       .  S
O1335      C1336   1.256       .  A
C1336      C3597   1.448       .  S
C1337      C2637   1.480       .  S
C1340      C2624   1.474       .  S
C1341      O1342   1.257       .  A
C1341      C2727   1.484       .  S
O1343      C1358   1.256       .  A
O1343     Al1351   1.892   1_556  S
C1344      O1354   1.261       .  A
C1344      O1345   1.255       .  A
C1344      C3357   1.479       .  S
O1345     Al1347   1.905       .  S
O1346      C1348   1.262       .  A
O1346     Al1347   1.881       .  S
Al1347     O1355   1.856       .  S
Al1347     O1357   1.891   1_554  S
Al1347     O1356   1.769       .  S
C1348      O1361   1.264   1_554  A
C1348      C3947   1.463       .  S
O1349      C1359   1.253       .  A
O1349     Al1351   1.851       .  S
O1350      C1363   1.266       .  A
O1350     Al1360   1.930       .  S
Al1351     O1364   1.884       .  S
Al1351     O1361   1.911   1_554  S
Al1351     O1356   1.781       .  S
O1352      C1359   1.271       .  A
O1352     Al1360   1.948       .  S
O1353      C1362   1.279       .  A
O1353     Al1360   1.983       .  S
O1354     Al1360   1.936       .  S
O1355      C1362   1.257       .  A
O1356     Al1360   1.778       .  S
O1357      C1358   1.259       .  A
C1358      C3477   1.450       .  S
C1359      C2634   1.468       .  S
C1362      C2614   1.472       .  S
C1363      O1364   1.257       .  A
C1363      C2677   1.478       .  S
O1365      C1380   1.254       .  A
O1365     Al1373   1.892       .  S
C1366      O1376   1.261       .  A
C1366      O1367   1.251       .  A
C1366      C2827   1.485       .  S
O1367     Al1369   1.901       .  S
O1368      C1370   1.264       .  A
O1368     Al1369   1.882       .  S
Al1369     O1377   1.855       .  S
Al1369     O1379   1.885       .  S
Al1369     O1378   1.774       .  S
C1370      O1383   1.267       .  A
C1370      C3767   1.465       .  S
O1371      C1381   1.253       .  A
O1371     Al1373   1.850       .  S
O1372      C1385   1.267       .  A
O1372     Al1382   1.938       .  S
Al1373     O1386   1.882       .  S
Al1373     O1383   1.916       .  S
Al1373     O1378   1.783       .  S
O1374      C1381   1.269       .  A
O1374     Al1382   1.932       .  S
O1375      C1384   1.279       .  A
O1375     Al1382   1.979       .  S
O1376     Al1382   1.949       .  S
O1377      C1384   1.259       .  A
O1378     Al1382   1.778       .  S
O1379      C1380   1.256       .  A
C1380      C2747   1.451       .  S
C1381      C2604   1.474       .  S
C1384      C3144   1.469       .  S
C1385      O1386   1.256       .  A
C1385      C3407   1.488       .  S
O1387      C1402   1.257       .  A
O1387     Al1395   1.893       .  S
C1388      O1398   1.265       .  A
C1388      O1389   1.256       .  A
C1388      C4514   1.488       .  S
O1389     Al1391   1.912       .  S
O1390      C1392   1.261       .  A
O1390     Al1391   1.883       .  S
Al1391     O1399   1.857   1_455  S
Al1391     O1401   1.892       .  S
Al1391     O1400   1.768       .  S
C1392      O1405   1.263       .  A
C1392      C2584   1.463       .  S
O1393      C1403   1.253       .  A
O1393     Al1395   1.848       .  S
O1394      C1407   1.271       .  A
O1394     Al1404   1.953       .  S
Al1395     O1408   1.882       .  S
Al1395     O1405   1.907       .  S
Al1395     O1400   1.776       .  S
O1396      C1403   1.271       .  A
O1396     Al1404   1.947       .  S
O1397      C1406   1.278       .  A
O1397     Al1404   1.984   1_655  S
O1398     Al1404   1.950       .  S
O1399      C1406   1.256       .  A
O1400     Al1404   1.775       .  S
O1401      C1402   1.260       .  A
C1402      C4017   1.451   1_455  S
C1403      C2607   1.469       .  S
C1406      C2597   1.473       .  S
C1407      O1408   1.259       .  A
C1407      C3454   1.496       .  S
O1409      C1424   1.273       .  A
O1409     Al1417   1.954   1_655  S
C1410      O1420   1.259       .  A
C1410      O1411   1.259       .  A
C1410      C2787   1.455       .  S
O1411     Al1413   1.886       .  S
O1412      C1414   1.257       .  A
O1412     Al1413   1.885       .  S
Al1413     O1421   1.894   1_545  S
Al1413     O1423   1.903   1_455  S
Al1413     O1422   1.763       .  S
C1414      O1427   1.267       .  A
C1414      C2574   1.476       .  S
O1415      C1425   1.268       .  A
O1415     Al1417   1.942       .  S
O1416      C1429   1.262   1_565  A
O1416     Al1426   1.895   1_565  S
Al1417     O1430   1.951       .  S
Al1417     O1427   1.951       .  S
Al1417     O1422   1.773       .  S
O1418      C1425   1.261       .  A
O1418     Al1426   1.898       .  S
O1419      C1428   1.261       .  A
O1419     Al1426   1.908   1_565  S
O1420     Al1426   1.904       .  S
O1421      C1428   1.262       .  A
O1422     Al1426   1.781       .  S
O1423      C1424   1.260       .  A
C1424      C2897   1.484       .  S
C1425      C2564   1.483       .  S
C1428      C4897   1.469       .  S
C1429      O1430   1.272       .  A
C1429      C2554   1.484       .  S
O1431      C1446   1.273       .  A
O1431     Al1439   1.961       .  S
C1432      O1442   1.258       .  A
C1432      O1433   1.258       .  A
C1432      C2544   1.455       .  S
O1433     Al1435   1.885       .  S
O1434      C1436   1.258       .  A
O1434     Al1435   1.881       .  S
Al1435     O1443   1.886       .  S
Al1435     O1445   1.906       .  S
Al1435     O1444   1.764       .  S
C1436      O1449   1.271       .  A
C1436      C2534   1.478       .  S
O1437      C1447   1.269       .  A
O1437     Al1439   1.940       .  S
O1438      C1451   1.259       .  A
O1438     Al1448   1.885       .  S
Al1439     O1452   1.962       .  S
Al1439     O1449   1.963       .  S
Al1439     O1444   1.770       .  S
O1440      C1447   1.261       .  A
O1440     Al1448   1.898       .  S
O1441      C1450   1.263       .  A
O1441     Al1448   1.908       .  S
O1442     Al1448   1.903       .  S
O1443      C1450   1.263       .  A
O1444     Al1448   1.779       .  S
O1445      C1446   1.259       .  A
C1446      C2527   1.486       .  S
C1447      C2567   1.482       .  S
C1450      C3714   1.467       .  S
C1451      O1452   1.273       .  A
C1451      C2514   1.492       .  S
O1453      C1468   1.254       .  A
O1453     Al1461   1.893       .  S
C1454      O1464   1.262       .  A
C1454      O1455   1.252       .  A
C1454      C3397   1.485       .  S
O1455     Al1457   1.902       .  S
O1456      C1458   1.263       .  A
O1456     Al1457   1.878       .  S
Al1457     O1465   1.856       .  S
Al1457     O1467   1.882       .  S
Al1457     O1466   1.774       .  S
C1458      O1471   1.267       .  A
C1458      C3824   1.465       .  S
O1459      C1469   1.252       .  A
O1459     Al1461   1.853       .  S
O1460      C1473   1.269       .  A
O1460     Al1470   1.943       .  S
Al1461     O1474   1.882       .  S
Al1461     O1471   1.920       .  S
Al1461     O1466   1.784       .  S
O1462      C1469   1.267       .  A
O1462     Al1470   1.933       .  S
O1463      C1472   1.280       .  A
O1463     Al1470   1.983       .  S
O1464     Al1470   1.949       .  S
O1465      C1472   1.258       .  A
O1466     Al1470   1.779       .  S
O1467      C1468   1.255       .  A
C1468      C4267   1.449       .  S
C1469      C2504   1.456       .  S
C1472      C3247   1.472       .  S
C1473      O1474   1.257       .  A
C1473      C3557   1.486       .  S
O1475      C1490   1.252       .  A
O1475     Al1483   1.891       .  S
C1476      O1486   1.259       .  A
C1476      O1477   1.252       .  A
C1476      C4597   1.484       .  S
O1477     Al1479   1.903       .  S
O1478      C1480   1.264       .  A
O1478     Al1479   1.879       .  S
Al1479     O1487   1.858   1_554  S
Al1479     O1489   1.884       .  S
Al1479     O1488   1.775       .  S
C1480      O1493   1.269       .  A
C1480      C2494   1.468       .  S
O1481      C1491   1.252       .  A
O1481     Al1483   1.848       .  S
O1482      C1495   1.267       .  A
O1482     Al1492   1.935       .  S
Al1483     O1496   1.878       .  S
Al1483     O1493   1.923       .  S
Al1483     O1488   1.786       .  S
O1484      C1491   1.267       .  A
O1484     Al1492   1.931       .  S
O1485      C1494   1.279       .  A
O1485     Al1492   1.979   1_556  S
O1486     Al1492   1.942       .  S
O1487      C1494   1.259       .  A
O1488     Al1492   1.782       .  S
O1489      C1490   1.254       .  A
C1490      C2687   1.450   1_554  S
C1491      C2507   1.463       .  S
C1494      C2484   1.470       .  S
C1495      O1496   1.256       .  A
C1495      C3607   1.485       .  S
O1497      C1512   1.253       .  A
O1497     Al1505   1.888       .  S
C1498      O1508   1.259       .  A
C1498      O1499   1.254       .  A
C1498      C4737   1.484       .  S
O1499     Al1501   1.910       .  S
O1500      C1502   1.263       .  A
O1500     Al1501   1.879       .  S
Al1501     O1509   1.857       .  S
Al1501     O1511   1.894       .  S
Al1501     O1510   1.773       .  S
C1502      O1515   1.267       .  A
C1502      C3007   1.465       .  S
O1503      C1513   1.251       .  A
O1503     Al1505   1.841       .  S
O1504      C1517   1.266       .  A
O1504     Al1514   1.931       .  S
Al1505     O1518   1.883       .  S
Al1505     O1515   1.918       .  S
Al1505     O1510   1.784       .  S
O1506      C1513   1.268       .  A
O1506     Al1514   1.931       .  S
O1507      C1516   1.278       .  A
O1507     Al1514   1.974       .  S
O1508     Al1514   1.938       .  S
O1509      C1516   1.259       .  A
O1510     Al1514   1.783       .  S
O1511      C1512   1.257       .  A
C1512      C3417   1.449       .  S
C1513      C2474   1.471       .  S
C1516      C2464   1.468       .  S
C1517      O1518   1.257       .  A
C1517      C4057   1.482       .  S
O1519      C1534   1.255       .  A
O1519     Al1527   1.889   1_655  S
C1520      O1530   1.261       .  A
C1520      O1521   1.254       .  A
C1520      C2797   1.482       .  S
O1521     Al1523   1.909       .  S
O1522      C1524   1.262       .  A
O1522     Al1523   1.877       .  S
Al1523     O1531   1.855       .  S
Al1523     O1533   1.890   1_455  S
Al1523     O1532   1.770       .  S
C1524      O1537   1.267   1_455  A
C1524      C4117   1.466       .  S
O1525      C1535   1.252       .  A
O1525     Al1527   1.844       .  S
O1526      C1539   1.267       .  A
O1526     Al1536   1.929       .  S
Al1527     O1540   1.893       .  S
Al1527     O1537   1.922   1_455  S
Al1527     O1532   1.780       .  S
O1528      C1535   1.269       .  A
O1528     Al1536   1.937       .  S
O1529      C1538   1.278       .  A
O1529     Al1536   1.980       .  S
O1530     Al1536   1.940       .  S
O1531      C1538   1.257       .  A
O1532     Al1536   1.779       .  S
O1533      C1534   1.258       .  A
C1534      C2887   1.449       .  S
C1535      C2477   1.463       .  S
C1538      C2577   1.470       .  S
C1539      O1540   1.259       .  A
C1539      C4007   1.483       .  S
O1541      C1556   1.271       .  A
O1541     Al1549   1.957       .  S
C1542      O1552   1.258       .  A
C1542      O1543   1.257       .  A
C1542      C4547   1.461       .  S
O1543     Al1545   1.888       .  S
O1544      C1546   1.259       .  A
O1544     Al1545   1.882       .  S
Al1545     O1553   1.894       .  S
Al1545     O1555   1.901       .  S
Al1545     O1554   1.768       .  S
C1546      O1559   1.272       .  A
C1546      C2627   1.481       .  S
O1547      C1557   1.267       .  A
O1547     Al1549   1.932       .  S
O1548      C1561   1.260       .  A
O1548     Al1558   1.888       .  S
Al1549     O1562   1.956       .  S
Al1549     O1559   1.966       .  S
Al1549     O1554   1.775       .  S
O1550      C1557   1.261       .  A
O1550     Al1558   1.896       .  S
O1551      C1560   1.264       .  A
O1551     Al1558   1.907       .  S
O1552     Al1558   1.906       .  S
O1553      C1560   1.264       .  A
O1554     Al1558   1.780       .  S
O1555      C1556   1.258       .  A
C1556      C3587   1.484       .  S
C1557      C2454   1.485       .  S
C1560      C2444   1.471       .  S
C1561      O1562   1.272       .  A
C1561      C2517   1.491       .  S
O1563      C1578   1.269       .  A
O1563     Al1571   1.962   1_655  S
C1564      O1574   1.256       .  A
C1564      O1565   1.254       .  A
C1564      C2424   1.460       .  S
O1565     Al1567   1.883       .  S
O1566      C1568   1.261       .  A
O1566     Al1567   1.877       .  S
Al1567     O1575   1.894   1_455  S
Al1567     O1577   1.893   1_455  S
Al1567     O1576   1.773       .  S
C1568      O1581   1.276       .  A
C1568      C3747   1.479       .  S
O1569      C1579   1.265       .  A
O1569     Al1571   1.927       .  S
O1570      C1583   1.259       .  A
O1570     Al1580   1.876       .  S
Al1571     O1584   1.951       .  S
Al1571     O1581   1.971       .  S
Al1571     O1576   1.776       .  S
O1572      C1579   1.257       .  A
O1572     Al1580   1.886       .  S
O1573      C1582   1.268       .  A
O1573     Al1580   1.916   1_545  S
O1574     Al1580   1.905       .  S
O1575      C1582   1.267   1_665  A
O1576     Al1580   1.779       .  S
O1577      C1578   1.253       .  A
C1578      C3807   1.483       .  S
C1579      C2457   1.469       .  S
C1582      C2434   1.472   1_455  S
C1583      O1584   1.271       .  A
C1583      C2557   1.491       .  S
O1585      C1600   1.271       .  A
O1585     Al1593   1.948       .  S
C1586      O1596   1.259       .  A
C1586      O1587   1.259       .  A
C1586      C4727   1.454       .  S
O1587     Al1589   1.889       .  S
O1588      C1590   1.258       .  A
O1588     Al1589   1.885       .  S
Al1589     O1597   1.891       .  S
Al1589     O1599   1.907       .  S
Al1589     O1598   1.763       .  S
C1590      O1603   1.267       .  A
C1590      C2467   1.475       .  S
O1591      C1601   1.268       .  A
O1591     Al1593   1.936       .  S
O1592      C1605   1.260       .  A
O1592     Al1602   1.884       .  S
Al1593     O1606   1.945       .  S
Al1593     O1603   1.948       .  S
Al1593     O1598   1.773       .  S
O1594      C1601   1.261       .  A
O1594     Al1602   1.902       .  S
O1595      C1604   1.262       .  A
O1595     Al1602   1.907       .  S
O1596     Al1602   1.903       .  S
O1597      C1604   1.262       .  A
O1598     Al1602   1.780       .  S
O1599      C1600   1.260       .  A
C1600      C3447   1.482       .  S
C1601      C2414   1.480       .  S
C1604      C2404   1.469       .  S
C1605      O1606   1.270       .  A
C1605      C3677   1.482       .  S
O1607      C1622   1.273       .  A
O1607     Al1615   1.952   1_565  S
C1608      O1618   1.257       .  A
C1608      O1609   1.258       .  A
C1608      C2394   1.454       .  S
O1609     Al1611   1.885       .  S
O1610      C1612   1.256       .  A
O1610     Al1611   1.878       .  S
Al1611     O1619   1.880   1_545  S
Al1611     O1621   1.915   1_545  S
Al1611     O1620   1.763       .  S
C1612      O1625   1.270       .  A
C1612      C3867   1.476       .  S
O1613      C1623   1.271       .  A
O1613     Al1615   1.932       .  S
O1614      C1627   1.258       .  A
O1614     Al1624   1.888       .  S
Al1615     O1628   1.950       .  S
Al1615     O1625   1.966       .  S
Al1615     O1620   1.773       .  S
O1616      C1623   1.266       .  A
O1616     Al1624   1.910       .  S
O1617      C1626   1.264       .  A
O1617     Al1624   1.912   1_554  S
O1618     Al1624   1.897       .  S
O1619      C1626   1.261   1_566  A
O1620     Al1624   1.776       .  S
O1621      C1622   1.262       .  A
C1622      C3737   1.483       .  S
C1623      C2417   1.482       .  S
C1626      C2427   1.469   1_545  S
C1627      O1628   1.269       .  A
C1627      C3634   1.487       .  S
O1629      C1644   1.271       .  A
O1629     Al1637   1.949       .  S
C1630      O1640   1.259       .  A
C1630      O1631   1.259       .  A
C1630      C4657   1.457       .  S
O1631     Al1633   1.889       .  S
O1632      C1634   1.257       .  A
O1632     Al1633   1.881       .  S
Al1633     O1641   1.887       .  S
Al1633     O1643   1.907       .  S
Al1633     O1642   1.761       .  S
C1634      O1647   1.268       .  A
C1634      C2757   1.471       .  S
O1635      C1645   1.269       .  A
O1635     Al1637   1.935       .  S
O1636      C1649   1.259       .  A
O1636     Al1646   1.883       .  S
Al1637     O1650   1.948       .  S
Al1637     O1647   1.952       .  S
Al1637     O1642   1.773       .  S
O1638      C1645   1.261       .  A
O1638     Al1646   1.897       .  S
O1639      C1648   1.261       .  A
O1639     Al1646   1.902       .  S
O1640     Al1646   1.904       .  S
O1641      C1648   1.262       .  A
O1642     Al1646   1.778       .  S
O1643      C1644   1.261       .  A
C1644      C2857   1.481       .  S
C1645      C2384   1.481       .  S
C1648      C2374   1.466       .  S
C1649      O1650   1.271       .  A
C1649      C2364   1.484       .  S
O1651      C1666   1.270       .  A
O1651     Al1659   1.944   1_556  S
C1652      O1662   1.259       .  A
C1652      O1653   1.260       .  A
C1652      C2437   1.457       .  S
O1653     Al1655   1.890       .  S
O1654      C1656   1.257       .  A
O1654     Al1655   1.880       .  S
Al1655     O1663   1.887       .  S
Al1655     O1665   1.906   1_554  S
Al1655     O1664   1.763       .  S
C1656      O1669   1.268       .  A
C1656      C3817   1.474       .  S
O1657      C1667   1.267       .  A
O1657     Al1659   1.932       .  S
O1658      C1671   1.262       .  A
O1658     Al1668   1.891       .  S
Al1659     O1672   1.948       .  S
Al1659     O1669   1.952       .  S
Al1659     O1664   1.773       .  S
O1660      C1667   1.260       .  A
O1660     Al1668   1.896       .  S
O1661      C1670   1.262       .  A
O1661     Al1668   1.913   1_455  S
O1662     Al1668   1.905       .  S
O1663      C1670   1.262   1_655  A
O1664     Al1668   1.781       .  S
O1665      C1666   1.260       .  A
C1666      C3884   1.480       .  S
C1667      C2387   1.474       .  S
C1670      C2397   1.467       .  S
C1671      O1672   1.272       .  A
C1671      C2354   1.487       .  S
O1673      C1688   1.272       .  A
O1673     Al1681   1.951   1_556  S
C1674      O1684   1.260       .  A
C1674      O1675   1.259       .  A
C1674      C3347   1.457       .  S
O1675     Al1677   1.887       .  S
O1676      C1678   1.258       .  A
O1676     Al1677   1.886       .  S
Al1677     O1685   1.892   1_454  S
Al1677     O1687   1.903   1_554  S
Al1677     O1686   1.762       .  S
C1678      O1691   1.269       .  A
C1678      C2617   1.479       .  S
O1679      C1689   1.270       .  A
O1679     Al1681   1.940       .  S
O1680      C1693   1.261   1_655  A
O1680     Al1690   1.890   1_655  S
Al1681     O1694   1.953       .  S
Al1681     O1691   1.957       .  S
Al1681     O1686   1.773       .  S
O1682      C1689   1.261       .  A
O1682     Al1690   1.894       .  S
O1683      C1692   1.262       .  A
O1683     Al1690   1.906   1_655  S
O1684     Al1690   1.907       .  S
O1685      C1692   1.262   1_556  A
O1686     Al1690   1.777       .  S
O1687      C1688   1.260       .  A
C1688      C3467   1.480       .  S
C1689      C2347   1.484       .  S
C1692      C4437   1.470   1_554  S
C1693      O1694   1.272       .  A
C1693      C2357   1.487       .  S
O1695      C1710   1.270       .  A
O1695     Al1703   1.943       .  S
C1696      O1706   1.259       .  A
C1696      O1697   1.259       .  A
C1696      C3687   1.455       .  S
O1697     Al1699   1.890       .  S
O1698      C1700   1.258       .  A
O1698     Al1699   1.882       .  S
Al1699     O1707   1.890       .  S
Al1699     O1709   1.906       .  S
Al1699     O1708   1.761       .  S
C1700      O1713   1.268       .  A
C1700      C2324   1.474       .  S
O1701      C1711   1.266       .  A
O1701     Al1703   1.929       .  S
O1702      C1715   1.259       .  A
O1702     Al1712   1.882       .  S
Al1703     O1716   1.950       .  S
Al1703     O1713   1.951       .  S
Al1703     O1708   1.773       .  S
O1704      C1711   1.261       .  A
O1704     Al1712   1.900       .  S
O1705      C1714   1.262       .  A
O1705     Al1712   1.909       .  S
O1706     Al1712   1.902       .  S
O1707      C1714   1.262       .  A
O1708     Al1712   1.778       .  S
O1709      C1710   1.260       .  A
C1710      C2337   1.478       .  S
C1711      C2344   1.472       .  S
C1714      C2547   1.468       .  S
C1715      O1716   1.271       .  A
C1715      C2367   1.483       .  S
O1717      C1732   1.270       .  A
O1717     Al1725   1.945       .  S
C1718      O1728   1.260       .  A
C1718      O1719   1.258       .  A
C1718      C2304   1.456       .  S
O1719     Al1721   1.885       .  S
O1720      C1722   1.257       .  A
O1720     Al1721   1.882       .  S
Al1721     O1729   1.892       .  S
Al1721     O1731   1.904       .  S
Al1721     O1730   1.764       .  S
C1722      O1735   1.269       .  A
C1722      C3997   1.476       .  S
O1723      C1733   1.268       .  A
O1723     Al1725   1.934       .  S
O1724      C1737   1.261       .  A
O1724     Al1734   1.887       .  S
Al1725     O1738   1.947       .  S
Al1725     O1735   1.957       .  S
Al1725     O1730   1.773       .  S
O1726      C1733   1.261       .  A
O1726     Al1734   1.898       .  S
O1727      C1736   1.262       .  A
O1727     Al1734   1.907       .  S
O1728     Al1734   1.906       .  S
O1729      C1736   1.263       .  A
O1730     Al1734   1.778       .  S
O1731      C1732   1.259       .  A
C1732      C4177   1.478       .  S
C1733      C2294   1.479       .  S
C1736      C2314   1.471       .  S
C1737      O1738   1.271       .  A
C1737      C3227   1.485       .  S
O1739      C1754   1.271       .  A
O1739     Al1747   1.951       .  S
C1740      O1750   1.261       .  A
C1740      O1741   1.258       .  A
C1740      C4507   1.458       .  S
O1741     Al1743   1.885       .  S
O1742      C1744   1.256       .  A
O1742     Al1743   1.879       .  S
Al1743     O1751   1.880       .  S
Al1743     O1753   1.908       .  S
Al1743     O1752   1.760       .  S
C1744      O1757   1.270       .  A
C1744      C2594   1.478       .  S
O1745      C1755   1.268       .  A
O1745     Al1747   1.930       .  S
O1746      C1759   1.261       .  A
O1746     Al1756   1.889       .  S
Al1747     O1760   1.952       .  S
Al1747     O1757   1.964       .  S
Al1747     O1752   1.771       .  S
O1748      C1755   1.263       .  A
O1748     Al1756   1.903       .  S
O1749      C1758   1.261       .  A
O1749     Al1756   1.912       .  S
O1750     Al1756   1.910       .  S
O1751      C1758   1.260       .  A
O1752     Al1756   1.782       .  S
O1753      C1754   1.260       .  A
C1754      C4047   1.483       .  S
C1755      C2297   1.478       .  S
C1758      C2287   1.451       .  S
C1759      O1760   1.272       .  A
C1759      C3184   1.488       .  S
O1761      C1776   1.268       .  A
O1761     Al1769   1.945       .  S
C1762      O1772   1.256       .  A
C1762      O1763   1.257       .  A
C1762      C2377   1.452       .  S
O1763     Al1765   1.883       .  S
O1764      C1766   1.257       .  A
O1764     Al1765   1.878       .  S
Al1765     O1773   1.892       .  S
Al1765     O1775   1.902       .  S
Al1765     O1774   1.767       .  S
C1766      O1779   1.268       .  A
C1766      C2844   1.473       .  S
O1767      C1777   1.266       .  A
O1767     Al1769   1.925       .  S
O1768      C1781   1.260       .  A
O1768     Al1778   1.883       .  S
Al1769     O1782   1.931       .  S
Al1769     O1779   1.952       .  S
Al1769     O1774   1.779       .  S
O1770      C1777   1.260       .  A
O1770     Al1778   1.897       .  S
O1771      C1780   1.263       .  A
O1771     Al1778   1.912       .  S
O1772     Al1778   1.895       .  S
O1773      C1780   1.263       .  A
O1774     Al1778   1.781       .  S
O1775      C1776   1.258       .  A
C1776      C2947   1.479       .  S
C1777      C2274   1.475       .  S
C1780      C4637   1.472       .  S
C1781      O1782   1.268       .  A
C1781      C3367   1.479       .  S
O1783      C1798   1.268       .  A
O1783     Al1791   1.958   1_455  S
C1784      O1794   1.257       .  A
C1784      O1785   1.253       .  A
C1784      C2284   1.466       .  S
O1785     Al1787   1.867       .  S
O1786      C1788   1.262       .  A
O1786     Al1787   1.883       .  S
Al1787     O1795   1.898   1_655  S
Al1787     O1797   1.895   1_655  S
Al1787     O1796   1.768       .  S
C1788      O1801   1.273       .  A
C1788      C4037   1.474       .  S
O1789      C1799   1.267       .  A
O1789     Al1791   1.925       .  S
O1790      C1803   1.257       .  A
O1790     Al1800   1.877       .  S
Al1791     O1804   1.928       .  S
Al1791     O1801   1.961       .  S
Al1791     O1796   1.777       .  S
O1792      C1799   1.259       .  A
O1792     Al1800   1.888       .  S
O1793      C1802   1.267       .  A
O1793     Al1800   1.911       .  S
O1794     Al1800   1.914       .  S
O1795      C1802   1.268   1_455  A
O1796     Al1800   1.777       .  S
O1797      C1798   1.253       .  A
C1798      C2264   1.479       .  S
C1799      C2277   1.473       .  S
C1802      C4487   1.472       .  S
C1803      O1804   1.266       .  A
C1803      C3337   1.480       .  S
O1805      C1820   1.254       .  A
O1805     Al1813   1.886       .  S
C1806      O1816   1.260       .  A
C1806      O1807   1.255       .  A
C1806      C2334   1.480       .  S
O1807     Al1809   1.910       .  S
O1808      C1810   1.263       .  A
O1808     Al1809   1.882       .  S
Al1809     O1817   1.858       .  S
Al1809     O1819   1.891       .  S
Al1809     O1818   1.770       .  S
C1810      O1823   1.267       .  A
C1810      C2237   1.469       .  S
O1811      C1821   1.251       .  A
O1811     Al1813   1.840       .  S
O1812      C1825   1.266       .  A
O1812     Al1822   1.927       .  S
Al1813     O1826   1.890       .  S
Al1813     O1823   1.921       .  S
Al1813     O1818   1.780       .  S
O1814      C1821   1.269       .  A
O1814     Al1822   1.939       .  S
O1815      C1824   1.279       .  A
O1815     Al1822   1.981       .  S
O1816     Al1822   1.935       .  S
O1817      C1824   1.258       .  A
O1818     Al1822   1.780       .  S
O1819      C1820   1.258       .  A
C1820      C2244   1.449       .  S
C1821      C2254   1.467       .  S
C1824      C2537   1.472       .  S
C1825      O1826   1.259       .  A
C1825      C2997   1.480       .  S
O1827      C1842   1.255       .  A
O1827     Al1835   1.888       .  S
C1828      O1838   1.259       .  A
C1828      O1829   1.254       .  A
C1828      C2267   1.482       .  S
O1829     Al1831   1.906       .  S
O1830      C1832   1.263       .  A
O1830     Al1831   1.884       .  S
Al1831     O1839   1.849       .  S
Al1831     O1841   1.888       .  S
Al1831     O1840   1.772       .  S
C1832      O1845   1.266       .  A
C1832      C4027   1.468       .  S
O1833      C1843   1.253       .  A
O1833     Al1835   1.845       .  S
O1834      C1847   1.265       .  A
O1834     Al1844   1.928       .  S
Al1835     O1848   1.884       .  S
Al1835     O1845   1.917       .  S
Al1835     O1840   1.783       .  S
O1836      C1843   1.270       .  A
O1836     Al1844   1.934       .  S
O1837      C1846   1.277       .  A
O1837     Al1844   1.975       .  S
O1838     Al1844   1.934       .  S
O1839      C1846   1.257       .  A
O1840     Al1844   1.779       .  S
O1841      C1842   1.259       .  A
C1842      C2587   1.449       .  S
C1843      C2257   1.470       .  S
C1846      C4497   1.468       .  S
C1847      O1848   1.256       .  A
C1847      C2977   1.482       .  S
O1849      C1864   1.270       .  A
O1849     Al1857   1.951       .  S
C1850      O1860   1.260       .  A
C1850      O1851   1.259       .  A
C1850      C2447   1.458       .  S
O1851     Al1853   1.888       .  S
O1852      C1854   1.258       .  A
O1852     Al1853   1.880       .  S
Al1853     O1861   1.889       .  S
Al1853     O1863   1.904       .  S
Al1853     O1862   1.765       .  S
C1854      O1867   1.271       .  A
C1854      C3577   1.479       .  S
O1855      C1865   1.268       .  A
O1855     Al1857   1.939       .  S
O1856      C1869   1.262       .  A
O1856     Al1866   1.889       .  S
Al1857     O1870   1.952       .  S
Al1857     O1867   1.963       .  S
Al1857     O1862   1.769       .  S
O1858      C1865   1.260       .  A
O1858     Al1866   1.894       .  S
O1859      C1868   1.263       .  A
O1859     Al1866   1.911       .  S
O1860     Al1866   1.908       .  S
O1861      C1868   1.262       .  A
O1862     Al1866   1.778       .  S
O1863      C1864   1.258       .  A
C1864      C3074   1.482       .  S
C1865      C2224   1.479       .  S
C1868      C4527   1.468       .  S
C1869      O1870   1.273       .  A
C1869      C2807   1.488       .  S
O1871      C1886   1.271       .  A
O1871     Al1879   1.946   1_545  S
C1872      O1882   1.258       .  A
C1872      O1873   1.259       .  A
C1872      C2214   1.455       .  S
O1873     Al1875   1.887       .  S
O1874      C1876   1.257       .  A
O1874     Al1875   1.885       .  S
Al1875     O1883   1.890       .  S
Al1875     O1885   1.904   1_565  S
Al1875     O1884   1.761       .  S
C1876      O1889   1.268       .  A
C1876      C4227   1.475       .  S
O1877      C1887   1.268       .  A
O1877     Al1879   1.933       .  S
O1878      C1891   1.259       .  A
O1878     Al1888   1.884       .  S
Al1879     O1892   1.952       .  S
Al1879     O1889   1.954       .  S
Al1879     O1884   1.774       .  S
O1880      C1887   1.263       .  A
O1880     Al1888   1.904       .  S
O1881      C1890   1.263       .  A
O1881     Al1888   1.912       .  S
O1882     Al1888   1.899       .  S
O1883      C1890   1.262       .  A
O1884     Al1888   1.778       .  S
O1885      C1886   1.261       .  A
C1886      C2204   1.478       .  S
C1887      C2227   1.482       .  S
C1890      C4687   1.471       .  S
C1891      O1892   1.271       .  A
C1891      C2777   1.485       .  S
O1893      C1908   1.272       .  A
O1893     Al1901   1.950       .  S
C1894      O1904   1.259       .  A
C1894      O1895   1.260       .  A
C1894      C2194   1.455       .  S
O1895     Al1897   1.889       .  S
O1896      C1898   1.257       .  A
O1896     Al1897   1.884       .  S
Al1897     O1905   1.892       .  S
Al1897     O1907   1.907       .  S
Al1897     O1906   1.761       .  S
C1898      O1911   1.268       .  A
C1898      C4367   1.477       .  S
O1899      C1909   1.269       .  A
O1899     Al1901   1.940       .  S
O1900      C1913   1.260       .  A
O1900     Al1910   1.885       .  S
Al1901     O1914   1.954       .  S
Al1901     O1911   1.955       .  S
Al1901     O1906   1.773       .  S
O1902      C1909   1.261       .  A
O1902     Al1910   1.896       .  S
O1903      C1912   1.261       .  A
O1903     Al1910   1.905       .  S
O1904     Al1910   1.902       .  S
O1905      C1912   1.262       .  A
O1906     Al1910   1.779       .  S
O1907      C1908   1.261       .  A
C1908      C3987   1.483       .  S
C1909      C2184   1.486       .  S
C1912      C2307   1.469       .  S
C1913      O1914   1.272       .  A
C1913      C3307   1.485       .  S
O1915      C1930   1.270       .  A
O1915     Al1923   1.946       .  S
C1916      O1926   1.259       .  A
C1916      O1917   1.259       .  A
C1916      C4584   1.457       .  S
O1917     Al1919   1.890       .  S
O1918      C1920   1.257       .  A
O1918     Al1919   1.881       .  S
Al1919     O1927   1.887       .  S
Al1919     O1929   1.906       .  S
Al1919     O1928   1.763       .  S
C1920      O1933   1.269       .  A
C1920      C2487   1.475       .  S
O1921      C1931   1.266       .  A
O1921     Al1923   1.930       .  S
O1922      C1935   1.261       .  A
O1922     Al1932   1.887       .  S
Al1923     O1936   1.950       .  S
Al1923     O1933   1.956       .  S
Al1923     O1928   1.772       .  S
O1924      C1931   1.261       .  A
O1924     Al1932   1.901       .  S
O1925      C1934   1.263       .  A
O1925     Al1932   1.914       .  S
O1926     Al1932   1.904       .  S
O1927      C1934   1.262       .  A
O1928     Al1932   1.780       .  S
O1929      C1930   1.260       .  A
C1930      C2697   1.479       .  S
C1931      C2187   1.473       .  S
C1934      C2174   1.469       .  S
C1935      O1936   1.272       .  A
C1935      C3257   1.486       .  S
O1937      C1952   1.270       .  A
O1937     Al1945   1.954       .  S
C1938      O1948   1.260       .  A
C1938      O1939   1.258       .  A
C1938      C2317   1.457       .  S
O1939     Al1941   1.886       .  S
O1940      C1942   1.258       .  A
O1940     Al1941   1.881       .  S
Al1941     O1949   1.892       .  S
Al1941     O1951   1.899       .  S
Al1941     O1950   1.765       .  S
C1942      O1955   1.270       .  A
C1942      C4187   1.476       .  S
O1943      C1953   1.268       .  A
O1943     Al1945   1.940       .  S
O1944      C1957   1.261       .  A
O1944     Al1954   1.885       .  S
Al1945     O1958   1.950       .  S
Al1945     O1955   1.956       .  S
Al1945     O1950   1.772       .  S
O1946      C1953   1.260       .  A
O1946     Al1954   1.897       .  S
O1947      C1956   1.263       .  A
O1947     Al1954   1.912       .  S
O1948     Al1954   1.908       .  S
O1949      C1956   1.263       .  A
O1950     Al1954   1.779       .  S
O1951      C1952   1.257       .  A
C1952      C4377   1.482       .  S
C1953      C2164   1.483       .  S
C1956      C2197   1.469       .  S
C1957      O1958   1.272       .  A
C1957      C3137   1.486       .  S
O1959      C1974   1.271       .  A
O1959     Al1967   1.951       .  S
C1960      O1970   1.258       .  A
C1960      O1961   1.258       .  A
C1960      C4707   1.452       .  S
O1961     Al1963   1.890       .  S
O1962      C1964   1.259       .  A
O1962     Al1963   1.888       .  S
Al1963     O1971   1.888       .  S
Al1963     O1973   1.910       .  S
Al1963     O1972   1.764       .  S
C1964      O1977   1.268       .  A
C1964      C2657   1.477       .  S
O1965      C1975   1.269       .  A
O1965     Al1967   1.936       .  S
O1966      C1979   1.259       .  A
O1966     Al1976   1.884       .  S
Al1967     O1980   1.944       .  S
Al1967     O1977   1.949       .  S
Al1967     O1972   1.774       .  S
O1968      C1975   1.263       .  A
O1968     Al1976   1.905       .  S
O1969      C1978   1.263       .  A
O1969     Al1976   1.911       .  S
O1970     Al1976   1.899       .  S
O1971      C1978   1.262       .  A
O1972     Al1976   1.779       .  S
O1973      C1974   1.260       .  A
C1974      C4237   1.484       .  S
C1975      C2167   1.483       .  S
C1978      C2217   1.468       .  S
C1979      O1980   1.269       .  A
C1979      C3107   1.483       .  S
O1981      C1996   1.271       .  A
O1981     Al1989   1.953       .  S
C1982      O1992   1.258       .  A
C1982      O1983   1.258       .  A
C1982      C2407   1.455       .  S
O1983     Al1985   1.886       .  S
O1984      C1986   1.258       .  A
O1984     Al1985   1.885       .  S
Al1985     O1993   1.892       .  S
Al1985     O1995   1.904       .  S
Al1985     O1994   1.765       .  S
C1986      O1999   1.270       .  A
C1986      C3437   1.479       .  S
O1987      C1997   1.269       .  A
O1987     Al1989   1.934       .  S
O1988      C2001   1.260       .  A
O1988     Al1998   1.888       .  S
Al1989     O2002   1.950       .  S
Al1989     O1999   1.959       .  S
Al1989     O1994   1.774       .  S
O1990      C1997   1.261       .  A
O1990     Al1998   1.897       .  S
O1991      C2000   1.263       .  A
O1991     Al1998   1.909       .  S
O1992     Al1998   1.903       .  S
O1993      C2000   1.263       .  A
O1994     Al1998   1.780       .  S
O1995      C1996   1.259       .  A
C1996      C3017   1.482       .  S
C1997      C2154   1.485       .  S
C2000      C4757   1.470       .  S
C2001      O2002   1.271       .  A
C2001      C3517   1.487       .  S
O2003      C2018   1.270       .  A
O2003     Al2011   1.950   1_554  S
C2004      O2014   1.257       .  A
C2004      O2005   1.257       .  A
C2004      C2177   1.455       .  S
O2005     Al2007   1.886       .  S
O2006      C2008   1.257       .  A
O2006     Al2007   1.877       .  S
Al2007     O2015   1.885       .  S
Al2007     O2017   1.911   1_556  S
Al2007     O2016   1.765       .  S
C2008      O2021   1.271       .  A
C2008      C2717   1.478       .  S
O2009      C2019   1.266       .  A
O2009     Al2011   1.921       .  S
O2010      C2023   1.259       .  A
O2010     Al2020   1.885       .  S
Al2011     O2024   1.953       .  S
Al2011     O2021   1.966       .  S
Al2011     O2016   1.775       .  S
O2012      C2019   1.262       .  A
O2012     Al2020   1.906       .  S
O2013      C2022   1.265       .  A
O2013     Al2020   1.916       .  S
O2014     Al2020   1.899       .  S
O2015      C2022   1.263       .  A
O2016     Al2020   1.781       .  S
O2017      C2018   1.260       .  A
C2018      C2144   1.484       .  S
C2019      C2157   1.468       .  S
C2022      C4607   1.471       .  S
C2023      O2024   1.271       .  A
C2023      C3497   1.489       .  S
O2025      C2040   1.257       .  A
O2025     Al2033   1.896       .  S
C2026      O2036   1.258       .  A
C2026      O2027   1.251       .  A
C2026      C3697   1.485       .  S
O2027     Al2029   1.898       .  S
O2028      C2030   1.262       .  A
O2028     Al2029   1.883       .  S
Al2029     O2037   1.853       .  S
Al2029     O2039   1.889       .  S
Al2029     O2038   1.774       .  S
C2030      O2043   1.263       .  A
C2030      C2124   1.463       .  S
O2031      C2041   1.255       .  A
O2031     Al2033   1.850       .  S
O2032      C2045   1.264       .  A
O2032     Al2042   1.934       .  S
Al2033     O2046   1.874       .  S
Al2033     O2043   1.914       .  S
Al2033     O2038   1.791       .  S
O2034      C2041   1.269       .  A
O2034     Al2042   1.926       .  S
O2035      C2044   1.277       .  A
O2035     Al2042   1.967       .  S
O2036     Al2042   1.939       .  S
O2037      C2044   1.259       .  A
O2038     Al2042   1.786       .  S
O2039      C2040   1.258       .  A
C2040      C2234   1.452       .  S
C2041      C2134   1.470       .  S
C2044      C2327   1.467       .  S
C2045      O2046   1.253       .  A
C2045      C3067   1.479       .  S
O2047      C2062   1.258       .  A
O2047     Al2055   1.893       .  S
C2048      O2058   1.264       .  A
C2048      O2049   1.256       .  A
C2048      C2147   1.487       .  S
O2049     Al2051   1.908       .  S
O2050      C2052   1.261       .  A
O2050     Al2051   1.887       .  S
Al2051     O2059   1.855       .  S
Al2051     O2061   1.896       .  S
Al2051     O2060   1.767       .  S
C2052      O2065   1.262       .  A
C2052      C2707   1.463       .  S
O2053      C2063   1.254       .  A
O2053     Al2055   1.847       .  S
O2054      C2067   1.271       .  A
O2054     Al2064   1.957       .  S
Al2055     O2068   1.875       .  S
Al2055     O2065   1.903       .  S
Al2055     O2060   1.775       .  S
O2056      C2063   1.271       .  A
O2056     Al2064   1.943       .  S
O2057      C2066   1.277       .  A
O2057     Al2064   1.975       .  S
O2058     Al2064   1.949       .  S
O2059      C2066   1.256       .  A
O2060     Al2064   1.776       .  S
O2061      C2062   1.261       .  A
C2062      C2497   1.453       .  S
C2063      C2137   1.466       .  S
C2066      C4617   1.468       .  S
C2067      O2068   1.257       .  A
C2067      C3037   1.497       .  S
O2069      C2084   1.254       .  A
O2069     Al2077   1.888       .  S
C2070      O2080   1.262       .  A
C2070      O2071   1.256       .  A
C2070      C2524   1.489       .  S
O2071     Al2073   1.917       .  S
O2072      C2074   1.262       .  A
O2072     Al2073   1.875       .  S
Al2073     O2081   1.861       .  S
Al2073     O2083   1.893       .  S
Al2073     O2082   1.770       .  S
C2074      O2087   1.266       .  A
C2074      C2247   1.464       .  S
O2075      C2085   1.251       .  A
O2075     Al2077   1.843       .  S
O2076      C2089   1.268       .  A
O2076     Al2086   1.933       .  S
Al2077     O2090   1.892       .  S
Al2077     O2087   1.920       .  S
Al2077     O2082   1.782       .  S
O2078      C2085   1.267       .  A
O2078     Al2086   1.930       .  S
O2079      C2088   1.276       .  A
O2079     Al2086   1.970       .  S
O2080     Al2086   1.945       .  S
O2081      C2088   1.259       .  A
O2082     Al2086   1.780       .  S
O2083      C2084   1.258       .  A
C2084      C2127   1.448       .  S
C2085      C2114   1.463       .  S
C2088      C3707   1.468       .  S
C2089      O2090   1.259       .  A
C2089      C2927   1.485       .  S
O2091      C2106   1.254       .  A
O2091     Al2099   1.891       .  S
C2092      O2102   1.258       .  A
C2092      O2093   1.254       .  A
C2092      C2207   1.481       .  S
O2093     Al2095   1.907       .  S
O2094      C2096   1.264       .  A
O2094     Al2095   1.881       .  S
Al2095     O2103   1.856       .  S
Al2095     O2105   1.891       .  S
Al2095     O2104   1.770       .  S
C2096      O2109   1.266       .  A
C2096      C4217   1.464       .  S
O2097      C2107   1.253       .  A
O2097     Al2099   1.846       .  S
O2098      C2111   1.263       .  A
O2098     Al2108   1.918       .  S
Al2099     O2112   1.881       .  S
Al2099     O2109   1.917       .  S
Al2099     O2104   1.785       .  S
O2100      C2107   1.268       .  A
O2100     Al2108   1.926       .  S
O2101      C2110   1.276       .  A
O2101     Al2108   1.967       .  S
O2102     Al2108   1.934       .  S
O2103      C2110   1.259       .  A
O2104     Al2108   1.782       .  S
O2105      C2106   1.257       .  A
C2106      C2647   1.449       .  S
C2107      C2117   1.468       .  S
C2110      C4697   1.466       .  S
C2111      O2112   1.256       .  A
C2111      C2917   1.475       .  S
C2113      C2114   1.396       .  A
C2113      C2118   1.393       .  A
C2113      H2119   1.083       .  S
C2114      C2115   1.408       .  A
C2115      C2116   1.392       .  A
C2115      H2120   1.084       .  S
C2116      C2117   1.398       .  A
C2116      H2121   1.083       .  S
C2117      C2118   1.411       .  A
C2118      H2122   1.083       .  S
C2123      C2124   1.402       .  A
C2123      C2128   1.389       .  A
C2123      H2129   1.083       .  S
C2124      C2125   1.405       .  A
C2125      C2126   1.394       .  A
C2125      H2130   1.083       .  S
C2126      C2127   1.399       .  A
C2126      H2131   1.084       .  S
C2127      C2128   1.398       .  A
C2128      H2132   1.084       .  S
C2133      C2134   1.411       .  A
C2133      C2138   1.393       .  A
C2133      H2139   1.083       .  S
C2134      C2135   1.398       .  A
C2135      C2136   1.392       .  A
C2135      H2140   1.083       .  S
C2136      C2137   1.409       .  A
C2136      H2141   1.084       .  S
C2137      C2138   1.397       .  A
C2138      H2142   1.083       .  S
C2143      C2144   1.405       .  A
C2143      C2148   1.405       .  A
C2143      H2149   1.084       .  S
C2144      C2145   1.407       .  A
C2145      C2146   1.409       .  A
C2145      H2150   1.083       .  S
C2146      C2147   1.407       .  A
C2146      H2151   1.083       .  S
C2147      C2148   1.406       .  A
C2148      H2152   1.083       .  S
C2153      C2154   1.404       .  A
C2153      C2158   1.405       .  A
C2153      H2159   1.083       .  S
C2154      C2155   1.411       .  A
C2155      C2156   1.396       .  A
C2155      H2160   1.083       .  S
C2156      C2157   1.396       .  A
C2156      H2161   1.083       .  S
C2157      C2158   1.407       .  A
C2158      H2162   1.084       .  S
C2163      C2164   1.405       .  A
C2163      C2168   1.393       .  A
C2163      H2169   1.084       .  S
C2164      C2165   1.408       .  A
C2165      C2166   1.410       .  A
C2165      H2170   1.083       .  S
C2166      C2167   1.408       .  A
C2166      H2171   1.083       .  S
C2167      C2168   1.404       .  A
C2168      H2172   1.083       .  S
C2173      C2174   1.408       .  A
C2173      C2178   1.398       .  A
C2173      H2179   1.083       .  S
C2174      C2175   1.402       .  A
C2175      C2176   1.389       .  A
C2175      H2180   1.083       .  S
C2176      C2177   1.401       .  A
C2176      H2181   1.084       .  S
C2177      C2178   1.399       .  A
C2178      H2182   1.083       .  S
C2183      C2184   1.407       .  A
C2183      C2188   1.408       .  A
C2183      H2189   1.083       .  S
C2184      C2185   1.408       .  A
C2185      C2186   1.391       .  A
C2185      H2190   1.083       .  S
C2186      C2187   1.399       .  A
C2186      H2191   1.084       .  S
C2187      C2188   1.407       .  A
C2188      H2192   1.083       .  S
C2193      C2194   1.401       .  A
C2193      C2198   1.389       .  A
C2193      H2199   1.083       .  S
C2194      C2195   1.398       .  A
C2195      C2196   1.397       .  A
C2195      H2200   1.083       .  S
C2196      C2197   1.409       .  A
C2196      H2201   1.083       .  S
C2197      C2198   1.401       .  A
C2198      H2202   1.083       .  S
C2203      C2204   1.406       .  A
C2203      C2208   1.407       .  A
C2203      H2209   1.083       .  S
C2204      C2205   1.405       .  A
C2205      C2206   1.402       .  A
C2205      H2210   1.084       .  S
C2206      C2207   1.404       .  A
C2206      H2211   1.084       .  S
C2207      C2208   1.406       .  A
C2208      H2212   1.083       .  S
C2213      C2214   1.398       .  A
C2213      C2218   1.397       .  A
C2213      H2219   1.083       .  S
C2214      C2215   1.401       .  A
C2215      C2216   1.388       .  A
C2215      H2220   1.084       .  S
C2216      C2217   1.401       .  A
C2216      H2221   1.083       .  S
C2217      C2218   1.408       .  A
C2218      H2222   1.083       .  S
C2223      C2224   1.403       .  A
C2223      C2228   1.392       .  A
C2223      H2229   1.084       .  S
C2224      C2225   1.407       .  A
C2225      C2226   1.409       .  A
C2225      H2230   1.083       .  S
C2226      C2227   1.408       .  A
C2226      H2231   1.083       .  S
C2227      C2228   1.404       .  A
C2228      H2232   1.083       .  S
C2233      C2234   1.400       .  A
C2233      C2238   1.389       .  A
C2233      H2239   1.084       .  S
C2234      C2235   1.399       .  A
C2235      C2236   1.396       .  A
C2235      H2240   1.084       .  S
C2236      C2237   1.406       .  A
C2236      H2241   1.083       .  S
C2237      C2238   1.403       .  A
C2238      H2242   1.083       .  S
C2243      C2244   1.398       .  A
C2243      C2248   1.387       .  A
C2243      H2249   1.084       .  S
C2244      C2245   1.399       .  A
C2245      C2246   1.395       .  A
C2245      H2250   1.084       .  S
C2246      C2247   1.405       .  A
C2246      H2251   1.083       .  S
C2247      C2248   1.403       .  A
C2248      H2252   1.083       .  S
C2253      C2254   1.396       .  A
C2253      C2258   1.394       .  A
C2253      H2259   1.083       .  S
C2254      C2255   1.410       .  A
C2255      C2256   1.392       .  A
C2255      H2260   1.084       .  S
C2256      C2257   1.397       .  A
C2256      H2261   1.083       .  S
C2257      C2258   1.412       .  A
C2258      H2262   1.083       .  S
C2263      C2264   1.406       .  A
C2263      C2268   1.404       .  A
C2263      H2269   1.084       .  S
C2264      C2265   1.407       .  A
C2265      C2266   1.406       .  A
C2265      H2270   1.083       .  S
C2266      C2267   1.405       .  A
C2266      H2271   1.084       .  S
C2267      C2268   1.404       .  A
C2268      H2272   1.083       .  S
C2273      C2274   1.410       .  A
C2273      C2278   1.400       .  A
C2273      H2279   1.083       .  S
C2274      C2275   1.399       .  A
C2275      C2276   1.401       .  A
C2275      H2280   1.083       .  S
C2276      C2277   1.409       .  A
C2276      H2281   1.083       .  S
C2277      C2278   1.398       .  A
C2278      H2282   1.083       .  S
C2283      C2284   1.407       .  A
C2283      C2288   1.405       .  A
C2283      H2289   1.083       .  S
C2284      C2285   1.404       .  A
C2285      C2286   1.375       .  A
C2285      H2290   1.083       .  S
C2286      C2287   1.393       .  A
C2286      H2291   1.084       .  S
C2287      C2288   1.404       .  A
C2288      H2292   1.083       .  S
C2293      C2294   1.407       .  A
C2293      C2298   1.408       .  A
C2293      H2299   1.083       .  S
C2294      C2295   1.404       .  A
C2295      C2296   1.392       .  A
C2295      H2300   1.084       .  S
C2296      C2297   1.403       .  A
C2296      H2301   1.084       .  S
C2297      C2298   1.407       .  A
C2298      H2302   1.083       .  S
C2303      C2304   1.398       .  A
C2303      C2308   1.397       .  A
C2303      H2309   1.083       .  S
C2304      C2305   1.402       .  A
C2305      C2306   1.389       .  A
C2305      H2310   1.084       .  S
C2306      C2307   1.401       .  A
C2306      H2311   1.083       .  S
C2307      C2308   1.409       .  A
C2308      H2312   1.083       .  S
C2313      C2314   1.401       .  A
C2313      C2318   1.389       .  A
C2313      H2319   1.083       .  S
C2314      C2315   1.410       .  A
C2315      C2316   1.398       .  A
C2315      H2320   1.083       .  S
C2316      C2317   1.398       .  A
C2316      H2321   1.083       .  S
C2317      C2318   1.402       .  A
C2318      H2322   1.083       .  S
C2323      C2324   1.401       .  A
C2323      C2328   1.401       .  A
C2323      H2329   1.083       .  S
C2324      C2325   1.406       .  A
C2325      C2326   1.399       .  A
C2325      H2330   1.083       .  S
C2326      C2327   1.401       .  A
C2326      H2331   1.084       .  S
C2327      C2328   1.407       .  A
C2328      H2332   1.084       .  S
C2333      C2334   1.404       .  A
C2333      C2338   1.404       .  A
C2333      H2339   1.083       .  S
C2334      C2335   1.405       .  A
C2335      C2336   1.406       .  A
C2335      H2340   1.084       .  S
C2336      C2337   1.406       .  A
C2336      H2341   1.083       .  S
C2337      C2338   1.405       .  A
C2338      H2342   1.084       .  S
C2343      C2344   1.399       .  A
C2343      C2348   1.390       .  A
C2343      H2349   1.084       .  S
C2344      C2345   1.407       .  A
C2345      C2346   1.408       .  A
C2345      H2350   1.083       .  S
C2346      C2347   1.407       .  A
C2346      H2351   1.083       .  S
C2347      C2348   1.408       .  A
C2348      H2352   1.083       .  S
C2353      C2354   1.405       .  A
C2353      C2358   1.400       .  A
C2353      H2359   1.083       .  S
C2354      C2355   1.409   1_655  A
C2355      C2356   1.401       .  A
C2355      H2360   1.083       .  S
C2356      C2357   1.405       .  A
C2356      H2361   1.083       .  S
C2357      C2358   1.408   1_455  A
C2358      H2362   1.083       .  S
C2363      C2364   1.403       .  A
C2363      C2368   1.399   1_655  A
C2363      H2369   1.083       .  S
C2364      C2365   1.409       .  A
C2365      C2366   1.400       .  A
C2365      H2370   1.083       .  S
C2366      C2367   1.403   1_655  A
C2366      H2371   1.083   1_655  S
C2367      C2368   1.409       .  A
C2368      H2372   1.083       .  S
C2373      C2374   1.409       .  A
C2373      C2378   1.396       .  A
C2373      H2379   1.083       .  S
C2374      C2375   1.401       .  A
C2375      C2376   1.387       .  A
C2375      H2380   1.083       .  S
C2376      C2377   1.401       .  A
C2376      H2381   1.084       .  S
C2377      C2378   1.397       .  A
C2378      H2382   1.083       .  S
C2383      C2384   1.407       .  A
C2383      C2388   1.408       .  A
C2383      H2389   1.083       .  S
C2384      C2385   1.406       .  A
C2385      C2386   1.390       .  A
C2385      H2390   1.083       .  S
C2386      C2387   1.401       .  A
C2386      H2391   1.084       .  S
C2387      C2388   1.407       .  A
C2388      H2392   1.083       .  S
C2393      C2394   1.399   1_554  A
C2393      C2398   1.397       .  A
C2393      H2399   1.084       .  S
C2394      C2395   1.400       .  A
C2395      C2396   1.389       .  A
C2395      H2400   1.084       .  S
C2396      C2397   1.401   1_556  A
C2396      H2401   1.083       .  S
C2397      C2398   1.407       .  A
C2398      H2402   1.083       .  S
C2403      C2404   1.401       .  A
C2403      C2408   1.388       .  A
C2403      H2409   1.084       .  S
C2404      C2405   1.409       .  A
C2405      C2406   1.398       .  A
C2405      H2410   1.083       .  S
C2406      C2407   1.398       .  A
C2406      H2411   1.083       .  S
C2407      C2408   1.401       .  A
C2408      H2412   1.083       .  S
C2413      C2414   1.404       .  A
C2413      C2418   1.393       .  A
C2413      H2419   1.084       .  S
C2414      C2415   1.407       .  A
C2415      C2416   1.408       .  A
C2415      H2420   1.083       .  S
C2416      C2417   1.408       .  A
C2416      H2421   1.083       .  S
C2417      C2418   1.405       .  A
C2418      H2422   1.083       .  S
C2423      C2424   1.399       .  A
C2423      C2428   1.399   1_565  A
C2423      H2429   1.083   1_565  S
C2424      C2425   1.402       .  A
C2425      C2426   1.386       .  A
C2425      H2430   1.084       .  S
C2426      C2427   1.402       .  A
C2426      H2431   1.083       .  S
C2427      C2428   1.408   1_565  A
C2428      H2432   1.083       .  S
C2433      C2434   1.402       .  A
C2433      C2438   1.390       .  A
C2433      H2439   1.083       .  S
C2434      C2435   1.409   1_655  A
C2435      C2436   1.397       .  A
C2435      H2440   1.083       .  S
C2436      C2437   1.398   1_455  A
C2436      H2441   1.083       .  S
C2437      C2438   1.402       .  A
C2438      H2442   1.083       .  S
C2443      C2444   1.410       .  A
C2443      C2448   1.398       .  A
C2443      H2449   1.083       .  S
C2444      C2445   1.401       .  A
C2445      C2446   1.388       .  A
C2445      H2450   1.083       .  S
C2446      C2447   1.403       .  A
C2446      H2451   1.083       .  S
C2447      C2448   1.397       .  A
C2448      H2452   1.083       .  S
C2453      C2454   1.404       .  A
C2453      C2458   1.405       .  A
C2453      H2459   1.083       .  S
C2454      C2455   1.411       .  A
C2455      C2456   1.398       .  A
C2455      H2460   1.083       .  S
C2456      C2457   1.397       .  A
C2456      H2461   1.083       .  S
C2457      C2458   1.407       .  A
C2458      H2462   1.084       .  S
C2463      C2464   1.407       .  A
C2463      C2468   1.401       .  A
C2463      H2469   1.083       .  S
C2464      C2465   1.402       .  A
C2465      C2466   1.399       .  A
C2465      H2470   1.084       .  S
C2466      C2467   1.405       .  A
C2466      H2471   1.082       .  S
C2467      C2468   1.401       .  A
C2468      H2472   1.083       .  S
C2473      C2474   1.412       .  A
C2473      C2478   1.392       .  A
C2473      H2479   1.083       .  S
C2474      C2475   1.399       .  A
C2475      C2476   1.394       .  A
C2475      H2480   1.083       .  S
C2476      C2477   1.408       .  A
C2476      H2481   1.084       .  S
C2477      C2478   1.395       .  A
C2478      H2482   1.083       .  S
C2483      C2484   1.408       .  A
C2483      C2488   1.402       .  A
C2483      H2489   1.084       .  S
C2484      C2485   1.402       .  A
C2485      C2486   1.400       .  A
C2485      H2490   1.084       .  S
C2486      C2487   1.406       .  A
C2486      H2491   1.083       .  S
C2487      C2488   1.401       .  A
C2488      H2492   1.083       .  S
C2493      C2494   1.407       .  A
C2493      C2498   1.396       .  A
C2493      H2499   1.083       .  S
C2494      C2495   1.403       .  A
C2495      C2496   1.388       .  A
C2495      H2500   1.083       .  S
C2496      C2497   1.400       .  A
C2496      H2501   1.084       .  S
C2497      C2498   1.399       .  A
C2498      H2502   1.083       .  S
C2503      C2504   1.398       .  A
C2503      C2508   1.392       .  A
C2503      H2509   1.084       .  S
C2504      C2505   1.404       .  A
C2505      C2506   1.400       .  A
C2505      H2510   1.083       .  S
C2506      C2507   1.402       .  A
C2506      H2511   1.083       .  S
C2507      C2508   1.404       .  A
C2508      H2512   1.084       .  S
C2513      C2514   1.404       .  A
C2513      C2518   1.403   1_545  A
C2513      H2519   1.083       .  S
C2514      C2515   1.411       .  A
C2515      C2516   1.403   1_545  A
C2515      H2520   1.083       .  S
C2516      C2517   1.404       .  A
C2516      H2521   1.083       .  S
C2517      C2518   1.410       .  A
C2518      H2522   1.083       .  S
C2523      C2524   1.406       .  A
C2523      C2528   1.409       .  A
C2523      H2529   1.083       .  S
C2524      C2525   1.406       .  A
C2525      C2526   1.408       .  A
C2525      H2530   1.083       .  S
C2526      C2527   1.407       .  A
C2526      H2531   1.083       .  S
C2527      C2528   1.408       .  A
C2528      H2532   1.083       .  S
C2533      C2534   1.407       .  A
C2533      C2538   1.401       .  A
C2533      H2539   1.083       .  S
C2534      C2535   1.401       .  A
C2535      C2536   1.402       .  A
C2535      H2540   1.083       .  S
C2536      C2537   1.408       .  A
C2536      H2541   1.084       .  S
C2537      C2538   1.402       .  A
C2538      H2542   1.084       .  S
C2543      C2544   1.401       .  A
C2543      C2548   1.389       .  A
C2543      H2549   1.084       .  S
C2544      C2545   1.398       .  A
C2545      C2546   1.397       .  A
C2545      H2550   1.083       .  S
C2546      C2547   1.408       .  A
C2546      H2551   1.083       .  S
C2547      C2548   1.401       .  A
C2548      H2552   1.084       .  S
C2553      C2554   1.409   1_565  A
C2553      C2558   1.406       .  A
C2553      H2559   1.083   1_455  S
C2554      C2555   1.402       .  A
C2555      C2556   1.398       .  A
C2555      H2560   1.083       .  S
C2556      C2557   1.410   1_545  A
C2556      H2561   1.083       .  S
C2557      C2558   1.406       .  A
C2558      H2562   1.083   1_455  S
C2563      C2564   1.408       .  A
C2563      C2568   1.411       .  A
C2563      H2569   1.083       .  S
C2564      C2565   1.404       .  A
C2565      C2566   1.392       .  A
C2565      H2570   1.084       .  S
C2566      C2567   1.403       .  A
C2566      H2571   1.084       .  S
C2567      C2568   1.408       .  A
C2568      H2572   1.083       .  S
C2573      C2574   1.401       .  A
C2573      C2578   1.401       .  A
C2573      H2579   1.083   1_455  S
C2574      C2575   1.406       .  A
C2575      C2576   1.400       .  A
C2575      H2580   1.083       .  S
C2576      C2577   1.402       .  A
C2576      H2581   1.084       .  S
C2577      C2578   1.408       .  A
C2578      H2582   1.084       .  S
C2583      C2584   1.406       .  A
C2583      C2588   1.392       .  A
C2583      H2589   1.083       .  S
C2584      C2585   1.402       .  A
C2585      C2586   1.387       .  A
C2585      H2590   1.083       .  S
C2586      C2587   1.400       .  A
C2586      H2591   1.084       .  S
C2587      C2588   1.398       .  A
C2588      H2592   1.084       .  S
C2593      C2594   1.402       .  A
C2593      C2598   1.403       .  A
C2593      H2599   1.083       .  S
C2594      C2595   1.407       .  A
C2595      C2596   1.401       .  A
C2595      H2600   1.084       .  S
C2596      C2597   1.402       .  A
C2596      H2601   1.084       .  S
C2597      C2598   1.409       .  A
C2598      H2602   1.083       .  S
C2603      C2604   1.412       .  A
C2603      C2608   1.395       .  A
C2603      H2609   1.083       .  S
C2604      C2605   1.399       .  A
C2605      C2606   1.394       .  A
C2605      H2610   1.083       .  S
C2606      C2607   1.409       .  A
C2606      H2611   1.084       .  S
C2607      C2608   1.397       .  A
C2608      H2612   1.083       .  S
C2613      C2614   1.408       .  A
C2613      C2618   1.403       .  A
C2613      H2619   1.083       .  S
C2614      C2615   1.402       .  A
C2615      C2616   1.401       .  A
C2615      H2620   1.084       .  S
C2616      C2617   1.407       .  A
C2616      H2621   1.083       .  S
C2617      C2618   1.402       .  A
C2618      H2622   1.083       .  S
C2623      C2624   1.409       .  A
C2623      C2628   1.405       .  A
C2623      H2629   1.083       .  S
C2624      C2625   1.403       .  A
C2625      C2626   1.401       .  A
C2625      H2630   1.084       .  S
C2626      C2627   1.407       .  A
C2626      H2631   1.084       .  S
C2627      C2628   1.402       .  A
C2628      H2632   1.083       .  S
C2633      C2634   1.394       .  A
C2633      C2638   1.394       .  A
C2633      H2639   1.083       .  S
C2634      C2635   1.410       .  A
C2635      C2636   1.398       .  A
C2635      H2640   1.084       .  S
C2636      C2637   1.400       .  A
C2636      H2641   1.083       .  S
C2637      C2638   1.414       .  A
C2638      H2642   1.083       .  S
C2643      C2644   1.406       .  A
C2643      C2648   1.395       .  A
C2643      H2649   1.083       .  S
C2644      C2645   1.403       .  A
C2645      C2646   1.388       .  A
C2645      H2650   1.083       .  S
C2646      C2647   1.399       .  A
C2646      H2651   1.084       .  S
C2647      C2648   1.399       .  A
C2648      H2652   1.084       .  S
C2653      C2654   1.407       .  A
C2653      C2658   1.401       .  A
C2653      H2659   1.083       .  S
C2654      C2655   1.402       .  A
C2655      C2656   1.399       .  A
C2655      H2660   1.084       .  S
C2656      C2657   1.405       .  A
C2656      H2661   1.081       .  S
C2657      C2658   1.402       .  A
C2658      H2662   1.083       .  S
C2663      C2664   1.396       .  A
C2663      C2668   1.393       .  A
C2663      H2669   1.083       .  S
C2664      C2665   1.408       .  A
C2665      C2666   1.393       .  A
C2665      H2670   1.084       .  S
C2666      C2667   1.399       .  A
C2666      H2671   1.083       .  S
C2667      C2668   1.411       .  A
C2668      H2672   1.083       .  S
C2673      C2674   1.401       .  A
C2673      C2678   1.402       .  A
C2673      H2679   1.083       .  S
C2674      C2675   1.410   1_556  A
C2675      C2676   1.402       .  A
C2675      H2680   1.083       .  S
C2676      C2677   1.400       .  A
C2676      H2681   1.083       .  S
C2677      C2678   1.409   1_554  A
C2678      H2682   1.083       .  S
C2683      C2684   1.402       .  A
C2683      C2688   1.388       .  A
C2683      H2689   1.083       .  S
C2684      C2685   1.407   1_556  A
C2685      C2686   1.395       .  A
C2685      H2690   1.083       .  S
C2686      C2687   1.398   1_554  A
C2686      H2691   1.084       .  S
C2687      C2688   1.399       .  A
C2688      H2692   1.084       .  S
C2693      C2694   1.405       .  A
C2693      C2698   1.405       .  A
C2693      H2699   1.083       .  S
C2694      C2695   1.405       .  A
C2695      C2696   1.405       .  A
C2695      H2700   1.084       .  S
C2696      C2697   1.406       .  A
C2696      H2701   1.083       .  S
C2697      C2698   1.406       .  A
C2698      H2702   1.084       .  S
C2703      C2704   1.400       .  A
C2703      C2708   1.388       .  A
C2703      H2709   1.084       .  S
C2704      C2705   1.397       .  A
C2705      C2706   1.392       .  A
C2705      H2710   1.084       .  S
C2706      C2707   1.407       .  A
C2706      H2711   1.083       .  S
C2707      C2708   1.401       .  A
C2708      H2712   1.083       .  S
C2713      C2714   1.409       .  A
C2713      C2718   1.403       .  A
C2713      H2719   1.084       .  S
C2714      C2715   1.401       .  A
C2715      C2716   1.401       .  A
C2715      H2720   1.084       .  S
C2716      C2717   1.407       .  A
C2716      H2721   1.084       .  S
C2717      C2718   1.401       .  A
C2718      H2722   1.083       .  S
C2723      C2724   1.402       .  A
C2723      C2728   1.403   1_556  A
C2723      H2729   1.083       .  S
C2724      C2725   1.410       .  A
C2725      C2726   1.403       .  A
C2725      H2730   1.083       .  S
C2726      C2727   1.402   1_556  A
C2726      H2731   1.083   1_556  S
C2727      C2728   1.410       .  A
C2728      H2732   1.083       .  S
C2733      C2734   1.398       .  A
C2733      C2738   1.396       .  A
C2733      H2739   1.083       .  S
C2734      C2735   1.412       .  A
C2735      C2736   1.394       .  A
C2735      H2740   1.083       .  S
C2736      C2737   1.397       .  A
C2736      H2741   1.083       .  S
C2737      C2738   1.412       .  A
C2738      H2742   1.083       .  S
C2743      C2744   1.403       .  A
C2743      C2748   1.387       .  A
C2743      H2749   1.083       .  S
C2744      C2745   1.406       .  A
C2745      C2746   1.394       .  A
C2745      H2750   1.083       .  S
C2746      C2747   1.398       .  A
C2746      H2751   1.083       .  S
C2747      C2748   1.400       .  A
C2748      H2752   1.084       .  S
C2753      C2754   1.401       .  A
C2753      C2758   1.399       .  A
C2753      H2759   1.084       .  S
C2754      C2755   1.407       .  A
C2755      C2756   1.400       .  A
C2755      H2760   1.084       .  S
C2756      C2757   1.401       .  A
C2756      H2761   1.083       .  S
C2757      C2758   1.405       .  A
C2758      H2762   1.084       .  S
C2763      C2764   1.395       .  A
C2763      C2768   1.390       .  A
C2763      H2769   1.083       .  S
C2764      C2765   1.407       .  A
C2765      C2766   1.393       .  A
C2765      H2770   1.084       .  S
C2766      C2767   1.399       .  A
C2766      H2771   1.083       .  S
C2767      C2768   1.411       .  A
C2768      H2772   1.083       .  S
C2773      C2774   1.404       .  A
C2773      C2778   1.400       .  A
C2773      H2779   1.083       .  S
C2774      C2775   1.409       .  A
C2775      C2776   1.400       .  A
C2775      H2780   1.083       .  S
C2776      C2777   1.404       .  A
C2776      H2781   1.083       .  S
C2777      C2778   1.409       .  A
C2778      H2782   1.083       .  S
C2783      C2784   1.409       .  A
C2783      C2788   1.397       .  A
C2783      H2789   1.083       .  S
C2784      C2785   1.401   1_565  A
C2785      C2786   1.389       .  A
C2785      H2790   1.083       .  S
C2786      C2787   1.402       .  A
C2786      H2791   1.083       .  S
C2787      C2788   1.397   1_545  A
C2788      H2792   1.083       .  S
C2793      C2794   1.406       .  A
C2793      C2798   1.406       .  A
C2793      H2799   1.083       .  S
C2794      C2795   1.406       .  A
C2795      C2796   1.405       .  A
C2795      H2800   1.084       .  S
C2796      C2797   1.405       .  A
C2796      H2801   1.083       .  S
C2797      C2798   1.406       .  A
C2798      H2802   1.084       .  S
C2803      C2804   1.405       .  A
C2803      C2808   1.401       .  A
C2803      H2809   1.083       .  S
C2804      C2805   1.409       .  A
C2805      C2806   1.401       .  A
C2805      H2810   1.083       .  S
C2806      C2807   1.405       .  A
C2806      H2811   1.083       .  S
C2807      C2808   1.409       .  A
C2808      H2812   1.083       .  S
C2813      C2814   1.404       .  A
C2813      C2818   1.391       .  A
C2813      H2819   1.084       .  S
C2814      C2815   1.407       .  A
C2815      C2816   1.409       .  A
C2815      H2820   1.083       .  S
C2816      C2817   1.407       .  A
C2816      H2821   1.083       .  S
C2817      C2818   1.403       .  A
C2818      H2822   1.084       .  S
C2823      C2824   1.406       .  A
C2823      C2828   1.405       .  A
C2823      H2829   1.084       .  S
C2824      C2825   1.407       .  A
C2825      C2826   1.408       .  A
C2825      H2830   1.083       .  S
C2826      C2827   1.406       .  A
C2826      H2831   1.083       .  S
C2827      C2828   1.406       .  A
C2828      H2832   1.083       .  S
C2833      C2834   1.409       .  A
C2833      C2838   1.402       .  A
C2833      H2839   1.083       .  S
C2834      C2835   1.401       .  A
C2835      C2836   1.402       .  A
C2835      H2840   1.083       .  S
C2836      C2837   1.409       .  A
C2836      H2841   1.083       .  S
C2837      C2838   1.401       .  A
C2838      H2842   1.083       .  S
C2843      C2844   1.400       .  A
C2843      C2848   1.401       .  A
C2843      H2849   1.083       .  S
C2844      C2845   1.406       .  A
C2845      C2846   1.399       .  A
C2845      H2850   1.084       .  S
C2846      C2847   1.401       .  A
C2846      H2851   1.084       .  S
C2847      C2848   1.408       .  A
C2848      H2852   1.084       .  S
C2853      C2854   1.405       .  A
C2853      C2858   1.406       .  A
C2853      H2859   1.083       .  S
C2854      C2855   1.405       .  A
C2855      C2856   1.405       .  A
C2855      H2860   1.084       .  S
C2856      C2857   1.406       .  A
C2856      H2861   1.083       .  S
C2857      C2858   1.406       .  A
C2858      H2862   1.084       .  S
C2863      C2864   1.406       .  A
C2863      C2868   1.395       .  A
C2863      H2869   1.083       .  S
C2864      C2865   1.402       .  A
C2865      C2866   1.388       .  A
C2865      H2870   1.083       .  S
C2866      C2867   1.400       .  A
C2866      H2871   1.084       .  S
C2867      C2868   1.399       .  A
C2868      H2872   1.084       .  S
C2873      C2874   1.401       .  A
C2873      C2878   1.404       .  A
C2873      H2879   1.083       .  S
C2874      C2875   1.411       .  A
C2875      C2876   1.404       .  A
C2875      H2880   1.083       .  S
C2876      C2877   1.401       .  A
C2876      H2881   1.083       .  S
C2877      C2878   1.411       .  A
C2878      H2882   1.083       .  S
C2883      C2884   1.406       .  A
C2883      C2888   1.394       .  A
C2883      H2889   1.083       .  S
C2884      C2885   1.402       .  A
C2885      C2886   1.387       .  A
C2885      H2890   1.083       .  S
C2886      C2887   1.399       .  A
C2886      H2891   1.084       .  S
C2887      C2888   1.398       .  A
C2888      H2892   1.084       .  S
C2893      C2894   1.406       .  A
C2893      C2898   1.407       .  A
C2893      H2899   1.083   1_545  S
C2894      C2895   1.406       .  A
C2895      C2896   1.408       .  A
C2895      H2900   1.084       .  S
C2896      C2897   1.407       .  A
C2896      H2901   1.083       .  S
C2897      C2898   1.406       .  A
C2898      H2902   1.083       .  S
C2903      C2904   1.410       .  A
C2903      C2908   1.392       .  A
C2903      H2909   1.083       .  S
C2904      C2905   1.398       .  A
C2905      C2906   1.395       .  A
C2905      H2910   1.083       .  S
C2906      C2907   1.410       .  A
C2906      H2911   1.083       .  S
C2907      C2908   1.397       .  A
C2908      H2912   1.083       .  S
C2913      C2914   1.401       .  A
C2913      C2918   1.400       .  A
C2913      H2919   1.083       .  S
C2914      C2915   1.408       .  A
C2915      C2916   1.400       .  A
C2915      H2920   1.083       .  S
C2916      C2917   1.401       .  A
C2916      H2921   1.083       .  S
C2917      C2918   1.408       .  A
C2918      H2922   1.083       .  S
C2923      C2924   1.410       .  A
C2923      C2928   1.404       .  A
C2923      H2929   1.083       .  S
C2924      C2925   1.402       .  A
C2925      C2926   1.404       .  A
C2925      H2930   1.083       .  S
C2926      C2927   1.410       .  A
C2926      H2931   1.083       .  S
C2927      C2928   1.402       .  A
C2928      H2932   1.083       .  S
C2933      C2934   1.407       .  A
C2933      C2938   1.395       .  A
C2933      H2939   1.083       .  S
C2934      C2935   1.403       .  A
C2935      C2936   1.389       .  A
C2935      H2940   1.083       .  S
C2936      C2937   1.400       .  A
C2936      H2941   1.084       .  S
C2937      C2938   1.399       .  A
C2938      H2942   1.084       .  S
C2943      C2944   1.406       .  A
C2943      C2948   1.408       .  A
C2943      H2949   1.083       .  S
C2944      C2945   1.405       .  A
C2945      C2946   1.402       .  A
C2945      H2950   1.084       .  S
C2946      C2947   1.405       .  A
C2946      H2951   1.084       .  S
C2947      C2948   1.406       .  A
C2948      H2952   1.083       .  S
C2953      C2954   1.397       .  A
C2953      C2958   1.393       .  A
C2953      H2959   1.084       .  S
C2954      C2955   1.401       .  A
C2955      C2956   1.388       .  A
C2955      H2960   1.084       .  S
C2956      C2957   1.401       .  A
C2956      H2961   1.083       .  S
C2957      C2958   1.408       .  A
C2958      H2962   1.083       .  S
C2963      C2964   1.397       .  A
C2963      C2968   1.394       .  A
C2963      H2969   1.083       .  S
C2964      C2965   1.411       .  A
C2965      C2966   1.395       .  A
C2965      H2970   1.083       .  S
C2966      C2967   1.398       .  A
C2966      H2971   1.083       .  S
C2967      C2968   1.412       .  A
C2968      H2972   1.083       .  S
C2973      C2974   1.409       .  A
C2973      C2978   1.402       .  A
C2973      H2979   1.083       .  S
C2974      C2975   1.401       .  A
C2975      C2976   1.402       .  A
C2975      H2980   1.083       .  S
C2976      C2977   1.410       .  A
C2976      H2981   1.083       .  S
C2977      C2978   1.401       .  A
C2978      H2982   1.083       .  S
C2983      C2984   1.402       .  A
C2983      C2988   1.388       .  A
C2983      H2989   1.083       .  S
C2984      C2985   1.406       .  A
C2985      C2986   1.395       .  A
C2985      H2990   1.083       .  S
C2986      C2987   1.399       .  A
C2986      H2991   1.084       .  S
C2987      C2988   1.399       .  A
C2988      H2992   1.084       .  S
C2993      C2994   1.402       .  A
C2993      C2998   1.402       .  A
C2993      H2999   1.083       .  S
C2994      C2995   1.409       .  A
C2995      C2996   1.402       .  A
C2995      H3000   1.083       .  S
C2996      C2997   1.401       .  A
C2996      H3001   1.083       .  S
C2997      C2998   1.409       .  A
C2998      H3002   1.083       .  S
C3003      C3004   1.399       .  A
C3003      C3008   1.395       .  A
C3003      H3009   1.084       .  S
C3004      C3005   1.399       .  A
C3005      C3006   1.388       .  A
C3005      H3010   1.084       .  S
C3006      C3007   1.403       .  A
C3006      H3011   1.083       .  S
C3007      C3008   1.406       .  A
C3008      H3012   1.083       .  S
C3013      C3014   1.405       .  A
C3013      C3018   1.405       .  A
C3013      H3019   1.083       .  S
C3014      C3015   1.406       .  A
C3015      C3016   1.407       .  A
C3015      H3020   1.084       .  S
C3016      C3017   1.407       .  A
C3016      H3021   1.083       .  S
C3017      C3018   1.406       .  A
C3018      H3022   1.084       .  S
C3023      C3024   1.397       .  A
C3023      C3028   1.394       .  A
C3023      H3029   1.083       .  S
C3024      C3025   1.411       .  A
C3025      C3026   1.394       .  A
C3025      H3030   1.083       .  S
C3026      C3027   1.398       .  A
C3026      H3031   1.083       .  S
C3027      C3028   1.411       .  A
C3028      H3032   1.083       .  S
C3033      C3034   1.409       .  A
C3033      C3038   1.415       .  A
C3033      H3039   1.083       .  S
C3034      C3035   1.396       .  A
C3035      C3036   1.391       .  A
C3035      H3040   1.084       .  S
C3036      C3037   1.412       .  A
C3036      H3041   1.083       .  S
C3037      C3038   1.409       .  A
C3038      H3042   1.082       .  S
C3043      C3044   1.399       .  A
C3043      C3048   1.394       .  A
C3043      H3049   1.084       .  S
C3044      C3045   1.399       .  A
C3045      C3046   1.387       .  A
C3045      H3050   1.084       .  S
C3046      C3047   1.403       .  A
C3046      H3051   1.083       .  S
C3047      C3048   1.406       .  A
C3048      H3052   1.083       .  S
C3053      C3054   1.403       .  A
C3053      C3058   1.388       .  A
C3053      H3059   1.083       .  S
C3054      C3055   1.405       .  A
C3055      C3056   1.395       .  A
C3055      H3060   1.083       .  S
C3056      C3057   1.400       .  A
C3056      H3061   1.084       .  S
C3057      C3058   1.399       .  A
C3058      H3062   1.084       .  S
C3063      C3064   1.403       .  A
C3063      C3068   1.404       .  A
C3063      H3069   1.083       .  S
C3064      C3065   1.411       .  A
C3065      C3066   1.402       .  A
C3065      H3070   1.083       .  S
C3066      C3067   1.401       .  A
C3066      H3071   1.083       .  S
C3067      C3068   1.409       .  A
C3068      H3072   1.083       .  S
C3073      C3074   1.406       .  A
C3073      C3078   1.408       .  A
C3073      H3079   1.083       .  S
C3074      C3075   1.406       .  A
C3075      C3076   1.404       .  A
C3075      H3080   1.084       .  S
C3076      C3077   1.405       .  A
C3076      H3081   1.083       .  S
C3077      C3078   1.407       .  A
C3078      H3082   1.083       .  S
C3083      C3084   1.399       .  A
C3083      C3088   1.394       .  A
C3083      H3089   1.084       .  S
C3084      C3085   1.399       .  A
C3085      C3086   1.386       .  A
C3085      H3090   1.084       .  S
C3086      C3087   1.403       .  A
C3086      H3091   1.083       .  S
C3087      C3088   1.405       .  A
C3088      H3092   1.083       .  S
C3093      C3094   1.395       .  A
C3093      C3098   1.390       .  A
C3093      H3099   1.083       .  S
C3094      C3095   1.409       .  A
C3095      C3096   1.395       .  A
C3095      H3100   1.084       .  S
C3096      C3097   1.399       .  A
C3096      H3101   1.083       .  S
C3097      C3098   1.412       .  A
C3098      H3102   1.083       .  S
C3103      C3104   1.409       .  A
C3103      C3108   1.399       .  A
C3103      H3109   1.083       .  S
C3104      C3105   1.404       .  A
C3105      C3106   1.399       .  A
C3105      H3110   1.083       .  S
C3106      C3107   1.408       .  A
C3106      H3111   1.083       .  S
C3107      C3108   1.404       .  A
C3108      H3112   1.083       .  S
C3113      C3114   1.406       .  A
C3113      C3118   1.407       .  A
C3113      H3119   1.084       .  S
C3114      C3115   1.405       .  A
C3115      C3116   1.405       .  A
C3115      H3120   1.083       .  S
C3116      C3117   1.406       .  A
C3116      H3121   1.084       .  S
C3117      C3118   1.406       .  A
C3118      H3122   1.083       .  S
C3123      C3124   1.406       .  A
C3123      C3128   1.399       .  A
C3123      H3129   1.083       .  S
C3124      C3125   1.401       .  A
C3125      C3126   1.401       .  A
C3125      H3130   1.083       .  S
C3126      C3127   1.408       .  A
C3126      H3131   1.084       .  S
C3127      C3128   1.401       .  A
C3128      H3132   1.084       .  S
C3133      C3134   1.409       .  A
C3133      C3138   1.401       .  A
C3133      H3139   1.083       .  S
C3134      C3135   1.404       .  A
C3135      C3136   1.400       .  A
C3135      H3140   1.083       .  S
C3136      C3137   1.409       .  A
C3136      H3141   1.083       .  S
C3137      C3138   1.404       .  A
C3138      H3142   1.083       .  S
C3143      C3144   1.408       .  A
C3143      C3148   1.402       .  A
C3143      H3149   1.084       .  S
C3144      C3145   1.402       .  A
C3145      C3146   1.400       .  A
C3145      H3150   1.084       .  S
C3146      C3147   1.406       .  A
C3146      H3151   1.083       .  S
C3147      C3148   1.401       .  A
C3148      H3152   1.083       .  S
C3153      C3154   1.398       .  A
C3153      C3158   1.398       .  A
C3153      H3159   1.083       .  S
C3154      C3155   1.402       .  A
C3155      C3156   1.389       .  A
C3155      H3160   1.084       .  S
C3156      C3157   1.401       .  A
C3156      H3161   1.083       .  S
C3157      C3158   1.409       .  A
C3158      H3162   1.083       .  S
C3163      C3164   1.406       .  A
C3163      C3168   1.406       .  A
C3163      H3169   1.084       .  S
C3164      C3165   1.406       .  A
C3165      C3166   1.406       .  A
C3165      H3170   1.083       .  S
C3166      C3167   1.406       .  A
C3166      H3171   1.084       .  S
C3167      C3168   1.405       .  A
C3168      H3172   1.083       .  S
C3173      C3174   1.404       .  A
C3173      C3178   1.391       .  A
C3173      H3179   1.084       .  S
C3174      C3175   1.407       .  A
C3175      C3176   1.409       .  A
C3175      H3180   1.083       .  S
C3176      C3177   1.408       .  A
C3176      H3181   1.083       .  S
C3177      C3178   1.403       .  A
C3178      H3182   1.084       .  S
C3183      C3184   1.404       .  A
C3183      C3188   1.400       .  A
C3183      H3189   1.083       .  S
C3184      C3185   1.410       .  A
C3185      C3186   1.402       .  A
C3185      H3190   1.083       .  S
C3186      C3187   1.404       .  A
C3186      H3191   1.083       .  S
C3187      C3188   1.409       .  A
C3188      H3192   1.083       .  S
C3193      C3194   1.398       .  A
C3193      C3198   1.397       .  A
C3193      H3199   1.083       .  S
C3194      C3195   1.401       .  A
C3195      C3196   1.389       .  A
C3195      H3200   1.083       .  S
C3196      C3197   1.401       .  A
C3196      H3201   1.083       .  S
C3197      C3198   1.409       .  A
C3198      H3202   1.083       .  S
C3203      C3204   1.401       .  A
C3203      C3208   1.402       .  A
C3203      H3209   1.083       .  S
C3204      C3205   1.406       .  A
C3205      C3206   1.400       .  A
C3205      H3210   1.083       .  S
C3206      C3207   1.402       .  A
C3206      H3211   1.084       .  S
C3207      C3208   1.408       .  A
C3208      H3212   1.083       .  S
C3213      C3214   1.405       .  A
C3213      C3218   1.403       .  A
C3213      H3219   1.084       .  S
C3214      C3215   1.405       .  A
C3215      C3216   1.404       .  A
C3215      H3220   1.083       .  S
C3216      C3217   1.404       .  A
C3216      H3221   1.084       .  S
C3217      C3218   1.404       .  A
C3218      H3222   1.083       .  S
C3223      C3224   1.404       .  A
C3223      C3228   1.400       .  A
C3223      H3229   1.083       .  S
C3224      C3225   1.408       .  A
C3225      C3226   1.399       .  A
C3225      H3230   1.083       .  S
C3226      C3227   1.404       .  A
C3226      H3231   1.083       .  S
C3227      C3228   1.409       .  A
C3228      H3232   1.083       .  S
C3233      C3234   1.404       .  A
C3233      C3238   1.405       .  A
C3233      H3239   1.083       .  S
C3234      C3235   1.411       .  A
C3235      C3236   1.391       .  A
C3235      H3240   1.083       .  S
C3236      C3237   1.394       .  A
C3236      H3241   1.084       .  S
C3237      C3238   1.407       .  A
C3238      H3242   1.084       .  S
C3243      C3244   1.406       .  A
C3243      C3248   1.401       .  A
C3243      H3249   1.083       .  S
C3244      C3245   1.402       .  A
C3245      C3246   1.403       .  A
C3245      H3250   1.083       .  S
C3246      C3247   1.408       .  A
C3246      H3251   1.083       .  S
C3247      C3248   1.402       .  A
C3248      H3252   1.084       .  S
C3253      C3254   1.409       .  A
C3253      C3258   1.400       .  A
C3253      H3259   1.083       .  S
C3254      C3255   1.404       .  A
C3255      C3256   1.401       .  A
C3255      H3260   1.083       .  S
C3256      C3257   1.409       .  A
C3256      H3261   1.083       .  S
C3257      C3258   1.404       .  A
C3258      H3262   1.083       .  S
C3263      C3264   1.399       .  A
C3263      C3268   1.398       .  A
C3263      H3269   1.083       .  S
C3264      C3265   1.401       .  A
C3265      C3266   1.389       .  A
C3265      H3270   1.083       .  S
C3266      C3267   1.401       .  A
C3266      H3271   1.084       .  S
C3267      C3268   1.409       .  A
C3268      H3272   1.083       .  S
C3273      C3274   1.402       .  A
C3273      C3278   1.401       .  A
C3273      H3279   1.083       .  S
C3274      C3275   1.406       .  A
C3275      C3276   1.400       .  A
C3275      H3280   1.083       .  S
C3276      C3277   1.402       .  A
C3276      H3281   1.084       .  S
C3277      C3278   1.408       .  A
C3278      H3282   1.084       .  S
C3283      C3284   1.401       .  A
C3283      C3288   1.389       .  A
C3283      H3289   1.084       .  S
C3284      C3285   1.409       .  A
C3285      C3286   1.397       .  A
C3285      H3290   1.083       .  S
C3286      C3287   1.398       .  A
C3286      H3291   1.083       .  S
C3287      C3288   1.402       .  A
C3288      H3292   1.083       .  S
C3293      C3294   1.406       .  A
C3293      C3298   1.406       .  A
C3293      H3299   1.084       .  S
C3294      C3295   1.406       .  A
C3295      C3296   1.406       .  A
C3295      H3300   1.083       .  S
C3296      C3297   1.405       .  A
C3296      H3301   1.084       .  S
C3297      C3298   1.405       .  A
C3298      H3302   1.083       .  S
C3303      C3304   1.404       .  A
C3303      C3308   1.400       .  A
C3303      H3309   1.083       .  S
C3304      C3305   1.409       .  A
C3305      C3306   1.400       .  A
C3305      H3310   1.083       .  S
C3306      C3307   1.404       .  A
C3306      H3311   1.083       .  S
C3307      C3308   1.409       .  A
C3308      H3312   1.083       .  S
C3313      C3314   1.407       .  A
C3313      C3318   1.409       .  A
C3313      H3319   1.083       .  S
C3314      C3315   1.400       .  A
C3315      C3316   1.391       .  A
C3315      H3320   1.084       .  S
C3316      C3317   1.407       .  A
C3316      H3321   1.083       .  S
C3317      C3318   1.408       .  A
C3318      H3322   1.083       .  S
C3323      C3324   1.406       .  A
C3323      C3328   1.399       .  A
C3323      H3329   1.084       .  S
C3324      C3325   1.400       .  A
C3325      C3326   1.401       .  A
C3325      H3330   1.083       .  S
C3326      C3327   1.408       .  A
C3326      H3331   1.084       .  S
C3327      C3328   1.401       .  A
C3328      H3332   1.084       .  S
C3333      C3334   1.408       .  A
C3333      C3338   1.398       .  A
C3333      H3339   1.083       .  S
C3334      C3335   1.403       .  A
C3335      C3336   1.397       .  A
C3335      H3340   1.083       .  S
C3336      C3337   1.408       .  A
C3336      H3341   1.083       .  S
C3337      C3338   1.403       .  A
C3338      H3342   1.083       .  S
C3343      C3344   1.401   1_455  A
C3343      C3348   1.389       .  A
C3343      H3349   1.083       .  S
C3344      C3345   1.409       .  A
C3345      C3346   1.399       .  A
C3345      H3350   1.083       .  S
C3346      C3347   1.398   1_655  A
C3346      H3351   1.083       .  S
C3347      C3348   1.402       .  A
C3348      H3352   1.083       .  S
C3353      C3354   1.405       .  A
C3353      C3358   1.405       .  A
C3353      H3359   1.083       .  S
C3354      C3355   1.405       .  A
C3355      C3356   1.404       .  A
C3355      H3360   1.084       .  S
C3356      C3357   1.404       .  A
C3356      H3361   1.083       .  S
C3357      C3358   1.405       .  A
C3358      H3362   1.084       .  S
C3363      C3364   1.407       .  A
C3363      C3368   1.398       .  A
C3363      H3369   1.083       .  S
C3364      C3365   1.404       .  A
C3365      C3366   1.397       .  A
C3365      H3370   1.083       .  S
C3366      C3367   1.407       .  A
C3366      H3371   1.083       .  S
C3367      C3368   1.404       .  A
C3368      H3372   1.083       .  S
C3373      C3374   1.407       .  A
C3373      C3378   1.409       .  A
C3373      H3379   1.083       .  S
C3374      C3375   1.403       .  A
C3375      C3376   1.392       .  A
C3375      H3380   1.084       .  S
C3376      C3377   1.405       .  A
C3376      H3381   1.083       .  S
C3377      C3378   1.408       .  A
C3378      H3382   1.083       .  S
C3383      C3384   1.401       .  A
C3383      C3388   1.389       .  A
C3383      H3389   1.083       .  S
C3384      C3385   1.409       .  A
C3385      C3386   1.398       .  A
C3385      H3390   1.083       .  S
C3386      C3387   1.398       .  A
C3386      H3391   1.083       .  S
C3387      C3388   1.401       .  A
C3388      H3392   1.083       .  S
C3393      C3394   1.406       .  A
C3393      C3398   1.407       .  A
C3393      H3399   1.083       .  S
C3394      C3395   1.406       .  A
C3395      C3396   1.406       .  A
C3395      H3400   1.084       .  S
C3396      C3397   1.406       .  A
C3396      H3401   1.083       .  S
C3397      C3398   1.406       .  A
C3398      H3402   1.084       .  S
C3403      C3404   1.410       .  A
C3403      C3408   1.404       .  A
C3403      H3409   1.083       .  S
C3404      C3405   1.401       .  A
C3405      C3406   1.404       .  A
C3405      H3410   1.083       .  S
C3406      C3407   1.412       .  A
C3406      H3411   1.083       .  S
C3407      C3408   1.402       .  A
C3408      H3412   1.083       .  S
C3413      C3414   1.404       .  A
C3413      C3418   1.395       .  A
C3413      H3419   1.083       .  S
C3414      C3415   1.403       .  A
C3415      C3416   1.390       .  A
C3415      H3420   1.083       .  S
C3416      C3417   1.398       .  A
C3416      H3421   1.084       .  S
C3417      C3418   1.400       .  A
C3418      H3422   1.084       .  S
C3423      C3424   1.399       .  A
C3423      C3428   1.393       .  A
C3423      H3429   1.084       .  S
C3424      C3425   1.398       .  A
C3425      C3426   1.386       .  A
C3425      H3430   1.084       .  S
C3426      C3427   1.403       .  A
C3426      H3431   1.083       .  S
C3427      C3428   1.405       .  A
C3428      H3432   1.083       .  S
C3433      C3434   1.409       .  A
C3433      C3438   1.403       .  A
C3433      H3439   1.084       .  S
C3434      C3435   1.402       .  A
C3435      C3436   1.401       .  A
C3435      H3440   1.084       .  S
C3436      C3437   1.407       .  A
C3436      H3441   1.083       .  S
C3437      C3438   1.402       .  A
C3438      H3442   1.083       .  S
C3443      C3444   1.406       .  A
C3443      C3448   1.407       .  A
C3443      H3449   1.083       .  S
C3444      C3445   1.405       .  A
C3445      C3446   1.405       .  A
C3445      H3450   1.083       .  S
C3446      C3447   1.406       .  A
C3446      H3451   1.084       .  S
C3447      C3448   1.406       .  A
C3448      H3452   1.083       .  S
C3453      C3454   1.408   1_655  A
C3453      C3458   1.412       .  A
C3453      H3459   1.083       .  S
C3454      C3455   1.412       .  A
C3455      C3456   1.395       .  A
C3455      H3460   1.083       .  S
C3456      C3457   1.397       .  A
C3456      H3461   1.084       .  S
C3457      C3458   1.409   1_455  A
C3458      H3462   1.083       .  S
C3463      C3464   1.404       .  A
C3463      C3468   1.403       .  A
C3463      H3469   1.084   1_455  S
C3464      C3465   1.407       .  A
C3465      C3466   1.409       .  A
C3465      H3470   1.083       .  S
C3466      C3467   1.406       .  A
C3466      H3471   1.083       .  S
C3467      C3468   1.406       .  A
C3468      H3472   1.084   1_455  S
C3473      C3474   1.403       .  A
C3473      C3478   1.388       .  A
C3473      H3479   1.083       .  S
C3474      C3475   1.406       .  A
C3475      C3476   1.395       .  A
C3475      H3480   1.083       .  S
C3476      C3477   1.399       .  A
C3476      H3481   1.084       .  S
C3477      C3478   1.400       .  A
C3478      H3482   1.084       .  S
C3483      C3484   1.394       .  A
C3483      C3488   1.392       .  A
C3483      H3489   1.084       .  S
C3484      C3485   1.406       .  A
C3485      C3486   1.396       .  A
C3485      H3490   1.084       .  S
C3486      C3487   1.400       .  A
C3486      H3491   1.083       .  S
C3487      C3488   1.411       .  A
C3488      H3492   1.083       .  S
C3493      C3494   1.410       .  A
C3493      C3498   1.402       .  A
C3493      H3499   1.083       .  S
C3494      C3495   1.404       .  A
C3495      C3496   1.402       .  A
C3495      H3500   1.083       .  S
C3496      C3497   1.410       .  A
C3496      H3501   1.083       .  S
C3497      C3498   1.404       .  A
C3498      H3502   1.083       .  S
C3503      C3504   1.408       .  A
C3503      C3508   1.412       .  A
C3503      H3509   1.083       .  S
C3504      C3505   1.406       .  A
C3505      C3506   1.405       .  A
C3505      H3510   1.083       .  S
C3506      C3507   1.405       .  A
C3506      H3511   1.083       .  S
C3507      C3508   1.408       .  A
C3508      H3512   1.083       .  S
C3513      C3514   1.409       .  A
C3513      C3518   1.401       .  A
C3513      H3519   1.083       .  S
C3514      C3515   1.404       .  A
C3515      C3516   1.401       .  A
C3515      H3520   1.083       .  S
C3516      C3517   1.409       .  A
C3516      H3521   1.083       .  S
C3517      C3518   1.404       .  A
C3518      H3522   1.083       .  S
C3523      C3524   1.396       .  A
C3523      C3528   1.399       .  A
C3523      H3529   1.083       .  S
C3524      C3525   1.409       .  A
C3525      C3526   1.405       .  A
C3525      H3530   1.083       .  S
C3526      C3527   1.402       .  A
C3526      H3531   1.083       .  S
C3527      C3528   1.411       .  A
C3528      H3532   1.083       .  S
C3533      C3534   1.402       .  A
C3533      C3538   1.390       .  A
C3533      H3539   1.083       .  S
C3534      C3535   1.409       .  A
C3535      C3536   1.399       .  A
C3535      H3540   1.083       .  S
C3536      C3537   1.399       .  A
C3536      H3541   1.083       .  S
C3537      C3538   1.402       .  A
C3538      H3542   1.084       .  S
C3543      C3544   1.407       .  A
C3543      C3548   1.406       .  A
C3543      H3549   1.083       .  S
C3544      C3545   1.406       .  A
C3545      C3546   1.406       .  A
C3545      H3550   1.083       .  S
C3546      C3547   1.405       .  A
C3546      H3551   1.083       .  S
C3547      C3548   1.405       .  A
C3548      H3552   1.084       .  S
C3553      C3554   1.402       .  A
C3553      C3558   1.405       .  A
C3553      H3559   1.083       .  S
C3554      C3555   1.411       .  A
C3555      C3556   1.405       .  A
C3555      H3560   1.083       .  S
C3556      C3557   1.402       .  A
C3556      H3561   1.083       .  S
C3557      C3558   1.411       .  A
C3558      H3562   1.083       .  S
C3563      C3564   1.401       .  A
C3563      C3568   1.388       .  A
C3563      H3569   1.084       .  S
C3564      C3565   1.398       .  A
C3565      C3566   1.394       .  A
C3565      H3570   1.084       .  S
C3566      C3567   1.407       .  A
C3566      H3571   1.083       .  S
C3567      C3568   1.402       .  A
C3568      H3572   1.083       .  S
C3573      C3574   1.409       .  A
C3573      C3578   1.403       .  A
C3573      H3579   1.083       .  S
C3574      C3575   1.402       .  A
C3575      C3576   1.401       .  A
C3575      H3580   1.084       .  S
C3576      C3577   1.407       .  A
C3576      H3581   1.083       .  S
C3577      C3578   1.401       .  A
C3578      H3582   1.083       .  S
C3583      C3584   1.406       .  A
C3583      C3588   1.407       .  A
C3583      H3589   1.083       .  S
C3584      C3585   1.406       .  A
C3585      C3586   1.407       .  A
C3585      H3590   1.084       .  S
C3586      C3587   1.407       .  A
C3586      H3591   1.083       .  S
C3587      C3588   1.407       .  A
C3588      H3592   1.083       .  S
C3593      C3594   1.406       .  A
C3593      C3598   1.394       .  A
C3593      H3599   1.083       .  S
C3594      C3595   1.403       .  A
C3595      C3596   1.389       .  A
C3595      H3600   1.083       .  S
C3596      C3597   1.398       .  A
C3596      H3601   1.084       .  S
C3597      C3598   1.399       .  A
C3598      H3602   1.084       .  S
C3603      C3604   1.401       .  A
C3603      C3608   1.403       .  A
C3603      H3609   1.083       .  S
C3604      C3605   1.410       .  A
C3605      C3606   1.403       .  A
C3605      H3610   1.083   1_554  S
C3606      C3607   1.402       .  A
C3606      H3611   1.083       .  S
C3607      C3608   1.411       .  A
C3608      H3612   1.083       .  S
C3613      C3614   1.399       .  A
C3613      C3618   1.388       .  A
C3613      H3619   1.084       .  S
C3614      C3615   1.398       .  A
C3615      C3616   1.394       .  A
C3615      H3620   1.084       .  S
C3616      C3617   1.406       .  A
C3616      H3621   1.083       .  S
C3617      C3618   1.402       .  A
C3618      H3622   1.083       .  S
C3623      C3624   1.412       .  A
C3623      C3628   1.395       .  A
C3623      H3629   1.083       .  S
C3624      C3625   1.399       .  A
C3625      C3626   1.396       .  A
C3625      H3630   1.083       .  S
C3626      C3627   1.410       .  A
C3626      H3631   1.083       .  S
C3627      C3628   1.397       .  A
C3628      H3632   1.083       .  S
C3633      C3634   1.404       .  A
C3633      C3638   1.400       .  A
C3633      H3639   1.083       .  S
C3634      C3635   1.409   1_556  A
C3635      C3636   1.402       .  A
C3635      H3640   1.083       .  S
C3636      C3637   1.404       .  A
C3636      H3641   1.083       .  S
C3637      C3638   1.409   1_554  A
C3638      H3642   1.083       .  S
C3643      C3644   1.405       .  A
C3643      C3648   1.407       .  A
C3643      H3649   1.084       .  S
C3644      C3645   1.406       .  A
C3645      C3646   1.407       .  A
C3645      H3650   1.083   1_554  S
C3646      C3647   1.406       .  A
C3646      H3651   1.083       .  S
C3647      C3648   1.407       .  A
C3648      H3652   1.083       .  S
C3653      C3654   1.401       .  A
C3653      C3658   1.401       .  A
C3653      H3659   1.083   1_545  S
C3654      C3655   1.406       .  A
C3655      C3656   1.400       .  A
C3655      H3660   1.084       .  S
C3656      C3657   1.401       .  A
C3656      H3661   1.084       .  S
C3657      C3658   1.408       .  A
C3658      H3662   1.084       .  S
C3663      C3664   1.401       .  A
C3663      C3668   1.388       .  A
C3663      H3669   1.084       .  S
C3664      C3665   1.398   1_554  A
C3665      C3666   1.397       .  A
C3665      H3670   1.083       .  S
C3666      C3667   1.409       .  A
C3666      H3671   1.083       .  S
C3667      C3668   1.402   1_556  A
C3668      H3672   1.083       .  S
C3673      C3674   1.408       .  A
C3673      C3678   1.399   1_554  A
C3673      H3679   1.083       .  S
C3674      C3675   1.404       .  A
C3675      C3676   1.398   1_554  A
C3675      H3680   1.083       .  S
C3676      C3677   1.408       .  A
C3676      H3681   1.083       .  S
C3677      C3678   1.404       .  A
C3678      H3682   1.083       .  S
C3683      C3684   1.409       .  A
C3683      C3688   1.397       .  A
C3683      H3689   1.083       .  S
C3684      C3685   1.401       .  A
C3685      C3686   1.389       .  A
C3685      H3690   1.083       .  S
C3686      C3687   1.401       .  A
C3686      H3691   1.083       .  S
C3687      C3688   1.398       .  A
C3688      H3692   1.083       .  S
C3693      C3694   1.407       .  A
C3693      C3698   1.407       .  A
C3693      H3699   1.083       .  S
C3694      C3695   1.407       .  A
C3695      C3696   1.407       .  A
C3695      H3700   1.083       .  S
C3696      C3697   1.405       .  A
C3696      H3701   1.084       .  S
C3697      C3698   1.405       .  A
C3698      H3702   1.083       .  S
C3703      C3704   1.405       .  A
C3703      C3708   1.399       .  A
C3703      H3709   1.083       .  S
C3704      C3705   1.401       .  A
C3705      C3706   1.400       .  A
C3705      H3710   1.083       .  S
C3706      C3707   1.407       .  A
C3706      H3711   1.084       .  S
C3707      C3708   1.401       .  A
C3708      H3712   1.084       .  S
C3713      C3714   1.408       .  A
C3713      C3718   1.396       .  A
C3713      H3719   1.083       .  S
C3714      C3715   1.401       .  A
C3715      C3716   1.388       .  A
C3715      H3720   1.083       .  S
C3716      C3717   1.401       .  A
C3716      H3721   1.084       .  S
C3717      C3718   1.398       .  A
C3718      H3722   1.083       .  S
C3723      C3724   1.412       .  A
C3723      C3728   1.400       .  A
C3723      H3729   1.083       .  S
C3724      C3725   1.401       .  A
C3725      C3726   1.405       .  A
C3725      H3730   1.083       .  S
C3726      C3727   1.410       .  A
C3726      H3731   1.083       .  S
C3727      C3728   1.397       .  A
C3728      H3732   1.083       .  S
C3733      C3734   1.407       .  A
C3733      C3738   1.409       .  A
C3733      H3739   1.083       .  S
C3734      C3735   1.405       .  A
C3735      C3736   1.404       .  A
C3735      H3740   1.083       .  S
C3736      C3737   1.406       .  A
C3736      H3741   1.084       .  S
C3737      C3738   1.407       .  A
C3738      H3742   1.083       .  S
C3743      C3744   1.409       .  A
C3743      C3748   1.404       .  A
C3743      H3749   1.083       .  S
C3744      C3745   1.402       .  A
C3745      C3746   1.401       .  A
C3745      H3750   1.084       .  S
C3746      C3747   1.407       .  A
C3746      H3751   1.084       .  S
C3747      C3748   1.401       .  A
C3748      H3752   1.083   1_455  S
C3753      C3754   1.405       .  A
C3753      C3758   1.393       .  A
C3753      H3759   1.083       .  S
C3754      C3755   1.403       .  A
C3755      C3756   1.389       .  A
C3755      H3760   1.083       .  S
C3756      C3757   1.398       .  A
C3756      H3761   1.084       .  S
C3757      C3758   1.399       .  A
C3758      H3762   1.084       .  S
C3763      C3764   1.400       .  A
C3763      C3768   1.388       .  A
C3763      H3769   1.084       .  S
C3764      C3765   1.398       .  A
C3765      C3766   1.393       .  A
C3765      H3770   1.084       .  S
C3766      C3767   1.406       .  A
C3766      H3771   1.083       .  S
C3767      C3768   1.403       .  A
C3768      H3772   1.083       .  S
C3773      C3774   1.409       .  A
C3773      C3778   1.403       .  A
C3773      H3779   1.084       .  S
C3774      C3775   1.402       .  A
C3775      C3776   1.401       .  A
C3775      H3780   1.084       .  S
C3776      C3777   1.406       .  A
C3776      H3781   1.083       .  S
C3777      C3778   1.401       .  A
C3778      H3782   1.083       .  S
C3783      C3784   1.409       .  A
C3783      C3788   1.398       .  A
C3783      H3789   1.084       .  S
C3784      C3785   1.393       .  A
C3785      C3786   1.391       .  A
C3785      H3790   1.083       .  S
C3786      C3787   1.414       .  A
C3786      H3791   1.083       .  S
C3787      C3788   1.400       .  A
C3788      H3792   1.083       .  S
C3793      C3794   1.404   1_556  A
C3793      C3798   1.391       .  A
C3793      H3799   1.084       .  S
C3794      C3795   1.402       .  A
C3795      C3796   1.390       .  A
C3795      H3800   1.083       .  S
C3796      C3797   1.397   1_554  A
C3796      H3801   1.084       .  S
C3797      C3798   1.398       .  A
C3798      H3802   1.084       .  S
C3803      C3804   1.406       .  A
C3803      C3808   1.408       .  A
C3803      H3809   1.083       .  S
C3804      C3805   1.405       .  A
C3805      C3806   1.406       .  A
C3805      H3810   1.083       .  S
C3806      C3807   1.406       .  A
C3806      H3811   1.084       .  S
C3807      C3808   1.408       .  A
C3808      H3812   1.083       .  S
C3813      C3814   1.401       .  A
C3813      C3818   1.399       .  A
C3813      H3819   1.084       .  S
C3814      C3815   1.408       .  A
C3815      C3816   1.401       .  A
C3815      H3820   1.084       .  S
C3816      C3817   1.401       .  A
C3816      H3821   1.083       .  S
C3817      C3818   1.406       .  A
C3818      H3822   1.083       .  S
C3823      C3824   1.403       .  A
C3823      C3828   1.388       .  A
C3823      H3829   1.083       .  S
C3824      C3825   1.406       .  A
C3825      C3826   1.394       .  A
C3825      H3830   1.083       .  S
C3826      C3827   1.399       .  A
C3826      H3831   1.084       .  S
C3827      C3828   1.399       .  A
C3828      H3832   1.084       .  S
C3833      C3834   1.407       .  A
C3833      C3838   1.400       .  A
C3833      H3839   1.084       .  S
C3834      C3835   1.401       .  A
C3835      C3836   1.398       .  A
C3835      H3840   1.084       .  S
C3836      C3837   1.405       .  A
C3836      H3841   1.083       .  S
C3837      C3838   1.401       .  A
C3838      H3842   1.083       .  S
C3843      C3844   1.397       .  A
C3843      C3848   1.393       .  A
C3843      H3849   1.083       .  S
C3844      C3845   1.409       .  A
C3845      C3846   1.392       .  A
C3845      H3850   1.084       .  S
C3846      C3847   1.398       .  A
C3846      H3851   1.083       .  S
C3847      C3848   1.410       .  A
C3848      H3852   1.083       .  S
C3853      C3854   1.400   1_455  A
C3853      C3858   1.388       .  A
C3853      H3859   1.084       .  S
C3854      C3855   1.399       .  A
C3855      C3856   1.395       .  A
C3855      H3860   1.083       .  S
C3856      C3857   1.406   1_655  A
C3856      H3861   1.083       .  S
C3857      C3858   1.403       .  A
C3858      H3862   1.083       .  S
C3863      C3864   1.408       .  A
C3863      C3868   1.402       .  A
C3863      H3869   1.084       .  S
C3864      C3865   1.401       .  A
C3865      C3866   1.400       .  A
C3865      H3870   1.084       .  S
C3866      C3867   1.407       .  A
C3866      H3871   1.084       .  S
C3867      C3868   1.401       .  A
C3868      H3872   1.083   1_545  S
C3873      C3874   1.406   1_565  A
C3873      C3878   1.394       .  A
C3873      H3879   1.083       .  S
C3874      C3875   1.403       .  A
C3875      C3876   1.388       .  A
C3875      H3880   1.083       .  S
C3876      C3877   1.399   1_545  A
C3876      H3881   1.084       .  S
C3877      C3878   1.399       .  A
C3878      H3882   1.084       .  S
C3883      C3884   1.405       .  A
C3883      C3888   1.404       .  A
C3883      H3889   1.084       .  S
C3884      C3885   1.406       .  A
C3885      C3886   1.407       .  A
C3885      H3890   1.083       .  S
C3886      C3887   1.406       .  A
C3886      H3891   1.083       .  S
C3887      C3888   1.405       .  A
C3888      H3892   1.083       .  S
C3893      C3894   1.400       .  A
C3893      C3898   1.396       .  A
C3893      H3899   1.084       .  S
C3894      C3895   1.399       .  A
C3895      C3896   1.389       .  A
C3895      H3900   1.084       .  S
C3896      C3897   1.403       .  A
C3896      H3901   1.083       .  S
C3897      C3898   1.406       .  A
C3898      H3902   1.083       .  S
C3903      C3904   1.406       .  A
C3903      C3908   1.400       .  A
C3903      H3909   1.083       .  S
C3904      C3905   1.402       .  A
C3905      C3906   1.403       .  A
C3905      H3910   1.083       .  S
C3906      C3907   1.409       .  A
C3906      H3911   1.083       .  S
C3907      C3908   1.402       .  A
C3908      H3912   1.084       .  S
C3913      C3914   1.410       .  A
C3913      C3918   1.396       .  A
C3913      H3919   1.083       .  S
C3914      C3915   1.398       .  A
C3915      C3916   1.398       .  A
C3915      H3920   1.083       .  S
C3916      C3917   1.412       .  A
C3916      H3921   1.083       .  S
C3917      C3918   1.399       .  A
C3918      H3922   1.083       .  S
C3923      C3924   1.410   1_455  A
C3923      C3928   1.403       .  A
C3923      H3929   1.083       .  S
C3924      C3925   1.401       .  A
C3925      C3926   1.404       .  A
C3925      H3930   1.083       .  S
C3926      C3927   1.411   1_655  A
C3926      H3931   1.083       .  S
C3927      C3928   1.401       .  A
C3928      H3932   1.083       .  S
C3933      C3934   1.402       .  A
C3933      C3938   1.388       .  A
C3933      H3939   1.083       .  S
C3934      C3935   1.406   1_655  A
C3935      C3936   1.395       .  A
C3935      H3940   1.083       .  S
C3936      C3937   1.399       .  A
C3936      H3941   1.084       .  S
C3937      C3938   1.399   1_455  A
C3938      H3942   1.084       .  S
C3943      C3944   1.399   1_554  A
C3943      C3948   1.387       .  A
C3943      H3949   1.084       .  S
C3944      C3945   1.398       .  A
C3945      C3946   1.393       .  A
C3945      H3950   1.084       .  S
C3946      C3947   1.406   1_556  A
C3946      H3951   1.083       .  S
C3947      C3948   1.402       .  A
C3948      H3952   1.083       .  S
C3953      C3954   1.402       .  A
C3953      C3958   1.399       .  A
C3953      H3959   1.084       .  S
C3954      C3955   1.407       .  A
C3955      C3956   1.401       .  A
C3955      H3960   1.084       .  S
C3956      C3957   1.401       .  A
C3956      H3961   1.083       .  S
C3957      C3958   1.406       .  A
C3958      H3962   1.083       .  S
C3963      C3964   1.410       .  A
C3963      C3968   1.404       .  A
C3963      H3969   1.083       .  S
C3964      C3965   1.401       .  A
C3965      C3966   1.404   1_655  A
C3965      H3970   1.083       .  S
C3966      C3967   1.410       .  A
C3966      H3971   1.083       .  S
C3967      C3968   1.401   1_455  A
C3968      H3972   1.083   1_655  S
C3973      C3974   1.411       .  A
C3973      C3978   1.394       .  A
C3973      H3979   1.083       .  S
C3974      C3975   1.397       .  A
C3975      C3976   1.393       .  A
C3975      H3980   1.083       .  S
C3976      C3977   1.410       .  A
C3976      H3981   1.083       .  S
C3977      C3978   1.397       .  A
C3978      H3982   1.083       .  S
C3983      C3984   1.406       .  A
C3983      C3988   1.407       .  A
C3983      H3989   1.083       .  S
C3984      C3985   1.405       .  A
C3985      C3986   1.406       .  A
C3985      H3990   1.083       .  S
C3986      C3987   1.406       .  A
C3986      H3991   1.084       .  S
C3987      C3988   1.407       .  A
C3988      H3992   1.083       .  S
C3993      C3994   1.408       .  A
C3993      C3998   1.402       .  A
C3993      H3999   1.084       .  S
C3994      C3995   1.402       .  A
C3995      C3996   1.400       .  A
C3995      H4000   1.084       .  S
C3996      C3997   1.406       .  A
C3996      H4001   1.083       .  S
C3997      C3998   1.401       .  A
C3998      H4002   1.083       .  S
C4003      C4004   1.409   1_455  A
C4003      C4008   1.404       .  A
C4003      H4009   1.083       .  S
C4004      C4005   1.402       .  A
C4005      C4006   1.403       .  A
C4005      H4010   1.083       .  S
C4006      C4007   1.409   1_655  A
C4006      H4011   1.083       .  S
C4007      C4008   1.402       .  A
C4008      H4012   1.083       .  S
C4013      C4014   1.403       .  A
C4013      C4018   1.388       .  A
C4013      H4019   1.083       .  S
C4014      C4015   1.406   1_655  A
C4015      C4016   1.395       .  A
C4015      H4020   1.083       .  S
C4016      C4017   1.399   1_455  A
C4016      H4021   1.084       .  S
C4017      C4018   1.400       .  A
C4018      H4022   1.084       .  S
C4023      C4024   1.399       .  A
C4023      C4028   1.395       .  A
C4023      H4029   1.084       .  S
C4024      C4025   1.400       .  A
C4025      C4026   1.389       .  A
C4025      H4030   1.084       .  S
C4026      C4027   1.403       .  A
C4026      H4031   1.083       .  S
C4027      C4028   1.407       .  A
C4028      H4032   1.083       .  S
C4033      C4034   1.402       .  A
C4033      C4038   1.399       .  A
C4033      H4039   1.084       .  S
C4034      C4035   1.408       .  A
C4035      C4036   1.402       .  A
C4035      H4040   1.084       .  S
C4036      C4037   1.401       .  A
C4036      H4041   1.083       .  S
C4037      C4038   1.405       .  A
C4038      H4042   1.084       .  S
C4043      C4044   1.405       .  A
C4043      C4048   1.407       .  A
C4043      H4049   1.083       .  S
C4044      C4045   1.405       .  A
C4045      C4046   1.406       .  A
C4045      H4050   1.084       .  S
C4046      C4047   1.406       .  A
C4046      H4051   1.083       .  S
C4047      C4048   1.406       .  A
C4048      H4052   1.083       .  S
C4053      C4054   1.410       .  A
C4053      C4058   1.403       .  A
C4053      H4059   1.083       .  S
C4054      C4055   1.402       .  A
C4055      C4056   1.402   1_655  A
C4055      H4060   1.083       .  S
C4056      C4057   1.409       .  A
C4056      H4061   1.083       .  S
C4057      C4058   1.402   1_455  A
C4058      H4062   1.083   1_655  S
C4063      C4064   1.403       .  A
C4063      C4068   1.388       .  A
C4063      H4069   1.083       .  S
C4064      C4065   1.407       .  A
C4065      C4066   1.394       .  A
C4065      H4070   1.083       .  S
C4066      C4067   1.398       .  A
C4066      H4071   1.084       .  S
C4067      C4068   1.400       .  A
C4068      H4072   1.084       .  S
C4073      C4074   1.405       .  A
C4073      C4078   1.404       .  A
C4073      H4079   1.083       .  S
C4074      C4075   1.406       .  A
C4075      C4076   1.407       .  A
C4075      H4080   1.083       .  S
C4076      C4077   1.406       .  A
C4076      H4081   1.083       .  S
C4077      C4078   1.405       .  A
C4078      H4082   1.084       .  S
C4083      C4084   1.399       .  A
C4083      C4088   1.386       .  A
C4083      H4089   1.084       .  S
C4084      C4085   1.400       .  A
C4085      C4086   1.396       .  A
C4085      H4090   1.083       .  S
C4086      C4087   1.406       .  A
C4086      H4091   1.083       .  S
C4087      C4088   1.404       .  A
C4088      H4092   1.083       .  S
C4093      C4094   1.412       .  A
C4093      C4098   1.392       .  A
C4093      H4099   1.083       .  S
C4094      C4095   1.399       .  A
C4095      C4096   1.394       .  A
C4095      H4100   1.083       .  S
C4096      C4097   1.408       .  A
C4096      H4101   1.084       .  S
C4097      C4098   1.395       .  A
C4098      H4102   1.083       .  S
C4103      C4104   1.409   1_545  A
C4103      C4108   1.400       .  A
C4103      H4109   1.083       .  S
C4104      C4105   1.401       .  A
C4105      C4106   1.402       .  A
C4105      H4110   1.083       .  S
C4106      C4107   1.409   1_565  A
C4106      H4111   1.083       .  S
C4107      C4108   1.401       .  A
C4108      H4112   1.083       .  S
C4113      C4114   1.399   1_455  A
C4113      C4118   1.388       .  A
C4113      H4119   1.084       .  S
C4114      C4115   1.399       .  A
C4115      C4116   1.395       .  A
C4115      H4120   1.084       .  S
C4116      C4117   1.406   1_655  A
C4116      H4121   1.083       .  S
C4117      C4118   1.403       .  A
C4118      H4122   1.083       .  S
C4123      C4124   1.408       .  A
C4123      C4128   1.401       .  A
C4123      H4129   1.084       .  S
C4124      C4125   1.402       .  A
C4125      C4126   1.400       .  A
C4125      H4130   1.084       .  S
C4126      C4127   1.406       .  A
C4126      H4131   1.083       .  S
C4127      C4128   1.401       .  A
C4128      H4132   1.083       .  S
C4133      C4134   1.406   1_545  A
C4133      C4138   1.394       .  A
C4133      H4139   1.083       .  S
C4134      C4135   1.402       .  A
C4135      C4136   1.388       .  A
C4135      H4140   1.083       .  S
C4136      C4137   1.399       .  A
C4136      H4141   1.084       .  S
C4137      C4138   1.399   1_565  A
C4138      H4142   1.084       .  S
C4143      C4144   1.402       .  A
C4143      C4148   1.402   1_565  A
C4143      H4149   1.083       .  S
C4144      C4145   1.409       .  A
C4145      C4146   1.403       .  A
C4145      H4150   1.083       .  S
C4146      C4147   1.402   1_565  A
C4146      H4151   1.083   1_565  S
C4147      C4148   1.409       .  A
C4148      H4152   1.083       .  S
C4153      C4154   1.412       .  A
C4153      C4158   1.391       .  A
C4153      H4159   1.083       .  S
C4154      C4155   1.398       .  A
C4155      C4156   1.396       .  A
C4155      H4160   1.083       .  S
C4156      C4157   1.410       .  A
C4156      H4161   1.084       .  S
C4157      C4158   1.395       .  A
C4158      H4162   1.083       .  S
C4163      C4164   1.403       .  A
C4163      C4168   1.388       .  A
C4163      H4169   1.083       .  S
C4164      C4165   1.406       .  A
C4165      C4166   1.394       .  A
C4165      H4170   1.083       .  S
C4166      C4167   1.398       .  A
C4166      H4171   1.084       .  S
C4167      C4168   1.399       .  A
C4168      H4172   1.084       .  S
C4173      C4174   1.406       .  A
C4173      C4178   1.407       .  A
C4173      H4179   1.083       .  S
C4174      C4175   1.404       .  A
C4175      C4176   1.403       .  A
C4175      H4180   1.083       .  S
C4176      C4177   1.405       .  A
C4176      H4181   1.084       .  S
C4177      C4178   1.406       .  A
C4178      H4182   1.083       .  S
C4183      C4184   1.408       .  A
C4183      C4188   1.402       .  A
C4183      H4189   1.083       .  S
C4184      C4185   1.402       .  A
C4185      C4186   1.400       .  A
C4185      H4190   1.084       .  S
C4186      C4187   1.406       .  A
C4186      H4191   1.083       .  S
C4187      C4188   1.401       .  A
C4188      H4192   1.083       .  S
C4193      C4194   1.411   1_545  A
C4193      C4198   1.403       .  A
C4193      H4199   1.083       .  S
C4194      C4195   1.403       .  A
C4195      C4196   1.406       .  A
C4195      H4200   1.083       .  S
C4196      C4197   1.410   1_565  A
C4196      H4201   1.083       .  S
C4197      C4198   1.401       .  A
C4198      H4202   1.083       .  S
C4203      C4204   1.400       .  A
C4203      C4208   1.387       .  A
C4203      H4209   1.084       .  S
C4204      C4205   1.399   1_565  A
C4205      C4206   1.395       .  A
C4205      H4210   1.084       .  S
C4206      C4207   1.406   1_545  A
C4206      H4211   1.083       .  S
C4207      C4208   1.403       .  A
C4208      H4212   1.083       .  S
C4213      C4214   1.399       .  A
C4213      C4218   1.395       .  A
C4213      H4219   1.084       .  S
C4214      C4215   1.399       .  A
C4215      C4216   1.388       .  A
C4215      H4220   1.084       .  S
C4216      C4217   1.402       .  A
C4216      H4221   1.083       .  S
C4217      C4218   1.406       .  A
C4218      H4222   1.083       .  S
C4223      C4224   1.408       .  A
C4223      C4228   1.401       .  A
C4223      H4229   1.084       .  S
C4224      C4225   1.402       .  A
C4225      C4226   1.400       .  A
C4225      H4230   1.084       .  S
C4226      C4227   1.406       .  A
C4226      H4231   1.083       .  S
C4227      C4228   1.401       .  A
C4228      H4232   1.083       .  S
C4233      C4234   1.405       .  A
C4233      C4238   1.404       .  A
C4233      H4239   1.083       .  S
C4234      C4235   1.408       .  A
C4235      C4236   1.410       .  A
C4235      H4240   1.083       .  S
C4236      C4237   1.407       .  A
C4236      H4241   1.083       .  S
C4237      C4238   1.406       .  A
C4238      H4242   1.083       .  S
C4243      C4244   1.409       .  A
C4243      C4248   1.417   1_565  A
C4243      H4249   1.083       .  S
C4244      C4245   1.399       .  A
C4245      C4246   1.389   1_565  A
C4245      H4250   1.084       .  S
C4246      C4247   1.407       .  A
C4246      H4251   1.084       .  S
C4247      C4248   1.410       .  A
C4248      H4252   1.083       .  S
C4253      C4254   1.401       .  A
C4253      C4258   1.389       .  A
C4253      H4259   1.084       .  S
C4254      C4255   1.399       .  A
C4255      C4256   1.395       .  A
C4255      H4260   1.084       .  S
C4256      C4257   1.406       .  A
C4256      H4261   1.083       .  S
C4257      C4258   1.402       .  A
C4258      H4262   1.083       .  S
C4263      C4264   1.402       .  A
C4263      C4268   1.388       .  A
C4263      H4269   1.083       .  S
C4264      C4265   1.407       .  A
C4265      C4266   1.394       .  A
C4265      H4270   1.083       .  S
C4266      C4267   1.398       .  A
C4266      H4271   1.084       .  S
C4267      C4268   1.400       .  A
C4268      H4272   1.084       .  S
C4273      C4274   1.404       .  A
C4273      C4278   1.404       .  A
C4273      H4279   1.083       .  S
C4274      C4275   1.406       .  A
C4275      C4276   1.407       .  A
C4275      H4280   1.084       .  S
C4276      C4277   1.406       .  A
C4276      H4281   1.083       .  S
C4277      C4278   1.405       .  A
C4278      H4282   1.084       .  S
C4283      C4284   1.412       .  A
C4283      C4288   1.395       .  A
C4283      H4289   1.083       .  S
C4284      C4285   1.398       .  A
C4285      C4286   1.393       .  A
C4285      H4290   1.083       .  S
C4286      C4287   1.409       .  A
C4286      H4291   1.084       .  S
C4287      C4288   1.397       .  A
C4288      H4292   1.083       .  S
C4293      C4294   1.410   1_554  A
C4293      C4298   1.403       .  A
C4293      H4299   1.083       .  S
C4294      C4295   1.401       .  A
C4295      C4296   1.403       .  A
C4295      H4300   1.083       .  S
C4296      C4297   1.410   1_556  A
C4296      H4301   1.083       .  S
C4297      C4298   1.401       .  A
C4298      H4302   1.083       .  S
C4303      C4304   1.406   1_554  A
C4303      C4308   1.394       .  A
C4303      H4309   1.083       .  S
C4304      C4305   1.403       .  A
C4305      C4306   1.388       .  A
C4305      H4310   1.083       .  S
C4306      C4307   1.400       .  A
C4306      H4311   1.084       .  S
C4307      C4308   1.399   1_556  A
C4308      H4312   1.084       .  S
C4313      C4314   1.400       .  A
C4313      C4318   1.396       .  A
C4313      H4319   1.084       .  S
C4314      C4315   1.398   1_565  A
C4315      C4316   1.388       .  A
C4315      H4320   1.084       .  S
C4316      C4317   1.403       .  A
C4316      H4321   1.084       .  S
C4317      C4318   1.405   1_545  A
C4318      H4322   1.083       .  S
C4323      C4324   1.409       .  A
C4323      C4328   1.403       .  A
C4323      H4329   1.083       .  S
C4324      C4325   1.402       .  A
C4325      C4326   1.401       .  A
C4325      H4330   1.084       .  S
C4326      C4327   1.407       .  A
C4326      H4331   1.083       .  S
C4327      C4328   1.402       .  A
C4328      H4332   1.083       .  S
C4333      C4334   1.410       .  A
C4333      C4338   1.402   1_556  A
C4333      H4339   1.083       .  S
C4334      C4335   1.401       .  A
C4335      C4336   1.403   1_556  A
C4335      H4340   1.083       .  S
C4336      C4337   1.410       .  A
C4336      H4341   1.083       .  S
C4337      C4338   1.401       .  A
C4338      H4342   1.083       .  S
C4343      C4344   1.412       .  A
C4343      C4348   1.397       .  A
C4343      H4349   1.083       .  S
C4344      C4345   1.399       .  A
C4345      C4346   1.395       .  A
C4345      H4350   1.083       .  S
C4346      C4347   1.411       .  A
C4346      H4351   1.084       .  S
C4347      C4348   1.398       .  A
C4348      H4352   1.083       .  S
C4353      C4354   1.400       .  A
C4353      C4358   1.396       .  A
C4353      H4359   1.084       .  S
C4354      C4355   1.399       .  A
C4355      C4356   1.389       .  A
C4355      H4360   1.084       .  S
C4356      C4357   1.403       .  A
C4356      H4361   1.083       .  S
C4357      C4358   1.405       .  A
C4358      H4362   1.083       .  S
C4363      C4364   1.402       .  A
C4363      C4368   1.400       .  A
C4363      H4369   1.084       .  S
C4364      C4365   1.408       .  A
C4365      C4366   1.402       .  A
C4365      H4370   1.084       .  S
C4366      C4367   1.401       .  A
C4366      H4371   1.083       .  S
C4367      C4368   1.406       .  A
C4368      H4372   1.083       .  S
C4373      C4374   1.404       .  A
C4373      C4378   1.403       .  A
C4373      H4379   1.084       .  S
C4374      C4375   1.406       .  A
C4375      C4376   1.409       .  A
C4375      H4380   1.083       .  S
C4376      C4377   1.407       .  A
C4376      H4381   1.083       .  S
C4377      C4378   1.406       .  A
C4378      H4382   1.084       .  S
C4383      C4384   1.403       .  A
C4383      C4388   1.391       .  A
C4383      H4389   1.084       .  S
C4384      C4385   1.402       .  A
C4385      C4386   1.391       .  A
C4385      H4390   1.083       .  S
C4386      C4387   1.398       .  A
C4386      H4391   1.084       .  S
C4387      C4388   1.399       .  A
C4388      H4392   1.084       .  S
C4393      C4394   1.401       .  A
C4393      C4398   1.389       .  A
C4393      H4399   1.084       .  S
C4394      C4395   1.398       .  A
C4395      C4396   1.397       .  A
C4395      H4400   1.083       .  S
C4396      C4397   1.409       .  A
C4396      H4401   1.083       .  S
C4397      C4398   1.401       .  A
C4398      H4402   1.083       .  S
C4403      C4404   1.401       .  A
C4403      C4408   1.401       .  A
C4403      H4409   1.083       .  S
C4404      C4405   1.406       .  A
C4405      C4406   1.399       .  A
C4405      H4410   1.083       .  S
C4406      C4407   1.401       .  A
C4406      H4411   1.084       .  S
C4407      C4408   1.408       .  A
C4408      H4412   1.084       .  S
C4413      C4414   1.409       .  A
C4413      C4418   1.397       .  A
C4413      H4419   1.083       .  S
C4414      C4415   1.402       .  A
C4415      C4416   1.387       .  A
C4415      H4420   1.084       .  S
C4416      C4417   1.401       .  A
C4416      H4421   1.084       .  S
C4417      C4418   1.398       .  A
C4418      H4422   1.083       .  S
C4423      C4424   1.407       .  A
C4423      C4428   1.404       .  A
C4423      H4429   1.084       .  S
C4424      C4425   1.407       .  A
C4425      C4426   1.409       .  A
C4425      H4430   1.083       .  S
C4426      C4427   1.406       .  A
C4426      H4431   1.083       .  S
C4427      C4428   1.404       .  A
C4428      H4432   1.084       .  S
C4433      C4434   1.402       .  A
C4433      C4438   1.389       .  A
C4433      H4439   1.084       .  S
C4434      C4435   1.398   1_556  A
C4435      C4436   1.397       .  A
C4435      H4440   1.083       .  S
C4436      C4437   1.409   1_554  A
C4436      H4441   1.083       .  S
C4437      C4438   1.401       .  A
C4438      H4442   1.083       .  S
C4443      C4444   1.401       .  A
C4443      C4448   1.400       .  A
C4443      H4449   1.083       .  S
C4444      C4445   1.406       .  A
C4445      C4446   1.400       .  A
C4445      H4450   1.083       .  S
C4446      C4447   1.401       .  A
C4446      H4451   1.084       .  S
C4447      C4448   1.408       .  A
C4448      H4452   1.084       .  S
C4453      C4454   1.401       .  A
C4453      C4458   1.388       .  A
C4453      H4459   1.084       .  S
C4454      C4455   1.408       .  A
C4455      C4456   1.397       .  A
C4455      H4460   1.083       .  S
C4456      C4457   1.398       .  A
C4456      H4461   1.083       .  S
C4457      C4458   1.400       .  A
C4458      H4462   1.083       .  S
C4463      C4464   1.407       .  A
C4463      C4468   1.406       .  A
C4463      H4469   1.083       .  S
C4464      C4465   1.406       .  A
C4465      C4466   1.406       .  A
C4465      H4470   1.083       .  S
C4466      C4467   1.405       .  A
C4466      H4471   1.083       .  S
C4467      C4468   1.405       .  A
C4468      H4472   1.084       .  S
C4473      C4474   1.410       .  A
C4473      C4478   1.398       .  A
C4473      H4479   1.083       .  S
C4474      C4475   1.399       .  A
C4475      C4476   1.402       .  A
C4475      H4480   1.083       .  S
C4476      C4477   1.409       .  A
C4476      H4481   1.083       .  S
C4477      C4478   1.396       .  A
C4478      H4482   1.083       .  S
C4483      C4484   1.397   1_655  A
C4483      C4488   1.397       .  A
C4483      H4489   1.083       .  S
C4484      C4485   1.403       .  A
C4485      C4486   1.390       .  A
C4485      H4490   1.083       .  S
C4486      C4487   1.401   1_455  A
C4486      H4491   1.083       .  S
C4487      C4488   1.411       .  A
C4488      H4492   1.083       .  S
C4493      C4494   1.401       .  A
C4493      C4498   1.402       .  A
C4493      H4499   1.083       .  S
C4494      C4495   1.406       .  A
C4495      C4496   1.399       .  A
C4495      H4500   1.083       .  S
C4496      C4497   1.401       .  A
C4496      H4501   1.084       .  S
C4497      C4498   1.409       .  A
C4498      H4502   1.084       .  S
C4503      C4504   1.409       .  A
C4503      C4508   1.398       .  A
C4503      H4509   1.083       .  S
C4504      C4505   1.401       .  A
C4505      C4506   1.390       .  A
C4505      H4510   1.083       .  S
C4506      C4507   1.402       .  A
C4506      H4511   1.084       .  S
C4507      C4508   1.399       .  A
C4508      H4512   1.083       .  S
C4513      C4514   1.406       .  A
C4513      C4518   1.406       .  A
C4513      H4519   1.083   1_455  S
C4514      C4515   1.407       .  A
C4515      C4516   1.409       .  A
C4515      H4520   1.083       .  S
C4516      C4517   1.407       .  A
C4516      H4521   1.083       .  S
C4517      C4518   1.406       .  A
C4518      H4522   1.084   1_455  S
C4523      C4524   1.398       .  A
C4523      C4528   1.396       .  A
C4523      H4529   1.083       .  S
C4524      C4525   1.401       .  A
C4525      C4526   1.388       .  A
C4525      H4530   1.084       .  S
C4526      C4527   1.402       .  A
C4526      H4531   1.083       .  S
C4527      C4528   1.408       .  A
C4528      H4532   1.083       .  S
C4533      C4534   1.406       .  A
C4533      C4538   1.399       .  A
C4533      H4539   1.084       .  S
C4534      C4535   1.400       .  A
C4535      C4536   1.400       .  A
C4535      H4540   1.083       .  S
C4536      C4537   1.407       .  A
C4536      H4541   1.084       .  S
C4537      C4538   1.401       .  A
C4538      H4542   1.084       .  S
C4543      C4544   1.409       .  A
C4543      C4548   1.400       .  A
C4543      H4549   1.083       .  S
C4544      C4545   1.403       .  A
C4545      C4546   1.388       .  A
C4545      H4550   1.083       .  S
C4546      C4547   1.401       .  A
C4546      H4551   1.084       .  S
C4547      C4548   1.399       .  A
C4548      H4552   1.083       .  S
C4553      C4554   1.407       .  A
C4553      C4558   1.407       .  A
C4553      H4559   1.083       .  S
C4554      C4555   1.406       .  A
C4555      C4556   1.406       .  A
C4555      H4560   1.084       .  S
C4556      C4557   1.405       .  A
C4556      H4561   1.083       .  S
C4557      C4558   1.406       .  A
C4558      H4562   1.083       .  S
C4563      C4564   1.410       .  A
C4563      C4568   1.404       .  A
C4563      H4569   1.083       .  S
C4564      C4565   1.397       .  A
C4565      C4566   1.400       .  A
C4565      H4570   1.083       .  S
C4566      C4567   1.411       .  A
C4566      H4571   1.083       .  S
C4567      C4568   1.400       .  A
C4568      H4572   1.083       .  S
C4573      C4574   1.404       .  A
C4573      C4578   1.400       .  A
C4573      H4579   1.083       .  S
C4574      C4575   1.408   1_554  A
C4575      C4576   1.400       .  A
C4575      H4580   1.083       .  S
C4576      C4577   1.404       .  A
C4576      H4581   1.083       .  S
C4577      C4578   1.409   1_556  A
C4578      H4582   1.083       .  S
C4583      C4584   1.398       .  A
C4583      C4588   1.398       .  A
C4583      H4589   1.083       .  S
C4584      C4585   1.402       .  A
C4585      C4586   1.389       .  A
C4585      H4590   1.083       .  S
C4586      C4587   1.402       .  A
C4586      H4591   1.083       .  S
C4587      C4588   1.409       .  A
C4588      H4592   1.083       .  S
C4593      C4594   1.407       .  A
C4593      C4598   1.409       .  A
C4593      H4599   1.083       .  S
C4594      C4595   1.406       .  A
C4595      C4596   1.403       .  A
C4595      H4600   1.084       .  S
C4596      C4597   1.405       .  A
C4596      H4601   1.084   1_554  S
C4597      C4598   1.406       .  A
C4598      H4602   1.083       .  S
C4603      C4604   1.399   1_556  A
C4603      C4608   1.399       .  A
C4603      H4609   1.083       .  S
C4604      C4605   1.402       .  A
C4605      C4606   1.388       .  A
C4605      H4610   1.084       .  S
C4606      C4607   1.402   1_554  A
C4606      H4611   1.084       .  S
C4607      C4608   1.409       .  A
C4608      H4612   1.083       .  S
C4613      C4614   1.401       .  A
C4613      C4618   1.402       .  A
C4613      H4619   1.083       .  S
C4614      C4615   1.406       .  A
C4615      C4616   1.399       .  A
C4615      H4620   1.084       .  S
C4616      C4617   1.402       .  A
C4616      H4621   1.084       .  S
C4617      C4618   1.407       .  A
C4618      H4622   1.083       .  S
C4623      C4624   1.408       .  A
C4623      C4628   1.401   1_554  A
C4623      H4629   1.083       .  S
C4624      C4625   1.405       .  A
C4625      C4626   1.401   1_554  A
C4625      H4630   1.083       .  S
C4626      C4627   1.408       .  A
C4626      H4631   1.083       .  S
C4627      C4628   1.405       .  A
C4628      H4632   1.083       .  S
C4633      C4634   1.398       .  A
C4633      C4638   1.399       .  A
C4633      H4639   1.083       .  S
C4634      C4635   1.402       .  A
C4635      C4636   1.390       .  A
C4635      H4640   1.083       .  S
C4636      C4637   1.401       .  A
C4636      H4641   1.083       .  S
C4637      C4638   1.410       .  A
C4638      H4642   1.083       .  S
C4643      C4644   1.406       .  A
C4643      C4648   1.400       .  A
C4643      H4649   1.083       .  S
C4644      C4645   1.401       .  A
C4645      C4646   1.403       .  A
C4645      H4650   1.083       .  S
C4646      C4647   1.409       .  A
C4646      H4651   1.084       .  S
C4647      C4648   1.402       .  A
C4648      H4652   1.084       .  S
C4653      C4654   1.402       .  A
C4653      C4658   1.390       .  A
C4653      H4659   1.083       .  S
C4654      C4655   1.408       .  A
C4655      C4656   1.398       .  A
C4655      H4660   1.083       .  S
C4656      C4657   1.399       .  A
C4656      H4661   1.083       .  S
C4657      C4658   1.401       .  A
C4658      H4662   1.084       .  S
C4663      C4664   1.406       .  A
C4663      C4668   1.408       .  A
C4663      H4669   1.083       .  S
C4664      C4665   1.406       .  A
C4665      C4666   1.405       .  A
C4665      H4670   1.084       .  S
C4666      C4667   1.405       .  A
C4666      H4671   1.083       .  S
C4667      C4668   1.407       .  A
C4668      H4672   1.083       .  S
C4673      C4674   1.408       .  A
C4673      C4678   1.409       .  A
C4673      H4679   1.083       .  S
C4674      C4675   1.408       .  A
C4675      C4676   1.392       .  A
C4675      H4680   1.083       .  S
C4676      C4677   1.399       .  A
C4676      H4681   1.084       .  S
C4677      C4678   1.407       .  A
C4678      H4682   1.083       .  S
C4683      C4684   1.402       .  A
C4683      C4688   1.390       .  A
C4683      H4689   1.084       .  S
C4684      C4685   1.399   1_545  A
C4685      C4686   1.398       .  A
C4685      H4690   1.083       .  S
C4686      C4687   1.408       .  A
C4686      H4691   1.083       .  S
C4687      C4688   1.402   1_565  A
C4688      H4692   1.083       .  S
C4693      C4694   1.405       .  A
C4693      C4698   1.398       .  A
C4693      H4699   1.083       .  S
C4694      C4695   1.400       .  A
C4695      C4696   1.399       .  A
C4695      H4700   1.083       .  S
C4696      C4697   1.407       .  A
C4696      H4701   1.084       .  S
C4697      C4698   1.400       .  A
C4698      H4702   1.084       .  S
C4703      C4704   1.407       .  A
C4703      C4708   1.395       .  A
C4703      H4709   1.083       .  S
C4704      C4705   1.400       .  A
C4705      C4706   1.391       .  A
C4705      H4710   1.083       .  S
C4706      C4707   1.401       .  A
C4706      H4711   1.081       .  S
C4707      C4708   1.398       .  A
C4708      H4712   1.084       .  S
C4713      C4714   1.406       .  A
C4713      C4718   1.406       .  A
C4713      H4719   1.083       .  S
C4714      C4715   1.407       .  A
C4715      C4716   1.407       .  A
C4715      H4720   1.083       .  S
C4716      C4717   1.406       .  A
C4716      H4721   1.084       .  S
C4717      C4718   1.406       .  A
C4718      H4722   1.083   1_545  S
C4723      C4724   1.409       .  A
C4723      C4728   1.397       .  A
C4723      H4729   1.083       .  S
C4724      C4725   1.400       .  A
C4725      C4726   1.390       .  A
C4725      H4730   1.083       .  S
C4726      C4727   1.401       .  A
C4726      H4731   1.082       .  S
C4727      C4728   1.398       .  A
C4728      H4732   1.084       .  S
C4733      C4734   1.407       .  A
C4733      C4738   1.407       .  A
C4733      H4739   1.083       .  S
C4734      C4735   1.406       .  A
C4735      C4736   1.405       .  A
C4735      H4740   1.084       .  S
C4736      C4737   1.405       .  A
C4736      H4741   1.083       .  S
C4737      C4738   1.406       .  A
C4738      H4742   1.084       .  S
C4743      C4744   1.401       .  A
C4743      C4748   1.402       .  A
C4743      H4749   1.083       .  S
C4744      C4745   1.406       .  A
C4745      C4746   1.400       .  A
C4745      H4750   1.083       .  S
C4746      C4747   1.402       .  A
C4746      H4751   1.084       .  S
C4747      C4748   1.408       .  A
C4748      H4752   1.084       .  S
C4753      C4754   1.398       .  A
C4753      C4758   1.398       .  A
C4753      H4759   1.083       .  S
C4754      C4755   1.402       .  A
C4755      C4756   1.389       .  A
C4755      H4760   1.083       .  S
C4756      C4757   1.401       .  A
C4756      H4761   1.083       .  S
C4757      C4758   1.409       .  A
C4758      H4762   1.083       .  S
C4763      C4764   1.408       .  A
C4763      C4768   1.389       .  A
C4763      H4769   1.083       .  S
C4764      C4765   1.408       .  A
C4765      C4766   1.411       .  A
C4765      H4770   1.083       .  S
C4766      C4767   1.408       .  A
C4766      H4771   1.083       .  S
C4767      C4768   1.398       .  A
C4768      H4772   1.084       .  S
C4773      C4774   1.409       .  A
C4773      C4778   1.402   1_565  A
C4773      H4779   1.083       .  S
C4774      C4775   1.405       .  A
C4775      C4776   1.401   1_565  A
C4775      H4780   1.083       .  S
C4776      C4777   1.409       .  A
C4776      H4781   1.083       .  S
C4777      C4778   1.405       .  A
C4778      H4782   1.083       .  S
C4783      C4784   1.398       .  A
C4783      C4788   1.397       .  A
C4783      H4789   1.083       .  S
C4784      C4785   1.402       .  A
C4785      C4786   1.388       .  A
C4785      H4790   1.084       .  S
C4786      C4787   1.401       .  A
C4786      H4791   1.083       .  S
C4787      C4788   1.409       .  A
C4788      H4792   1.083       .  S
C4793      C4794   1.401       .  A
C4793      C4798   1.404       .  A
C4793      H4799   1.083       .  S
C4794      C4795   1.407       .  A
C4795      C4796   1.400       .  A
C4795      H4800   1.084       .  S
C4796      C4797   1.402       .  A
C4796      H4801   1.084       .  S
C4797      C4798   1.409       .  A
C4798      H4802   1.083       .  S
C4803      C4804   1.401       .  A
C4803      C4808   1.390       .  A
C4803      H4809   1.083       .  S
C4804      C4805   1.409       .  A
C4805      C4806   1.398       .  A
C4805      H4810   1.083       .  S
C4806      C4807   1.398       .  A
C4806      H4811   1.083       .  S
C4807      C4808   1.401       .  A
C4808      H4812   1.083       .  S
C4813      C4814   1.406       .  A
C4813      C4818   1.406       .  A
C4813      H4819   1.083       .  S
C4814      C4815   1.406       .  A
C4815      C4816   1.405       .  A
C4815      H4820   1.084       .  S
C4816      C4817   1.405       .  A
C4816      H4821   1.083       .  S
C4817      C4818   1.405       .  A
C4818      H4822   1.084       .  S
C4823      C4824   1.409   1_545  A
C4823      C4828   1.400       .  A
C4823      H4829   1.083       .  S
C4824      C4825   1.404       .  A
C4825      C4826   1.400       .  A
C4825      H4830   1.083       .  S
C4826      C4827   1.409   1_565  A
C4826      H4831   1.083       .  S
C4827      C4828   1.404       .  A
C4828      H4832   1.083       .  S
C4833      C4834   1.398   1_545  A
C4833      C4838   1.397       .  A
C4833      H4839   1.083       .  S
C4834      C4835   1.401       .  A
C4835      C4836   1.389       .  A
C4835      H4840   1.083       .  S
C4836      C4837   1.402   1_565  A
C4836      H4841   1.083       .  S
C4837      C4838   1.409       .  A
C4838      H4842   1.083       .  S
C4843      C4844   1.409       .  A
C4843      C4848   1.403       .  A
C4843      H4849   1.084       .  S
C4844      C4845   1.402       .  A
C4845      C4846   1.400       .  A
C4845      H4850   1.084       .  S
C4846      C4847   1.407       .  A
C4846      H4851   1.083       .  S
C4847      C4848   1.401       .  A
C4848      H4852   1.083       .  S
C4853      C4854   1.401       .  A
C4853      C4858   1.388       .  A
C4853      H4859   1.083       .  S
C4854      C4855   1.408       .  A
C4855      C4856   1.396       .  A
C4855      H4860   1.083       .  S
C4856      C4857   1.398       .  A
C4856      H4861   1.083       .  S
C4857      C4858   1.400       .  A
C4858      H4862   1.084       .  S
C4863      C4864   1.405       .  A
C4863      C4868   1.404       .  A
C4863      H4869   1.083       .  S
C4864      C4865   1.407       .  A
C4865      C4866   1.410       .  A
C4865      H4870   1.083       .  S
C4866      C4867   1.407       .  A
C4866      H4871   1.083       .  S
C4867      C4868   1.405       .  A
C4868      H4872   1.084   1_565  S
C4873      C4874   1.410       .  A
C4873      C4878   1.397       .  A
C4873      H4879   1.083       .  S
C4874      C4875   1.400       .  A
C4875      C4876   1.402       .  A
C4875      H4880   1.083       .  S
C4876      C4877   1.408       .  A
C4876      H4881   1.083       .  S
C4877      C4878   1.395       .  A
C4878      H4882   1.083       .  S
C4883      C4884   1.407   1_455  A
C4883      C4888   1.398       .  A
C4883      H4889   1.083       .  S
C4884      C4885   1.405       .  A
C4885      C4886   1.400       .  A
C4885      H4890   1.083       .  S
C4886      C4887   1.408       .  A
C4886      H4891   1.083       .  S
C4887      C4888   1.405   1_655  A
C4888      H4892   1.083       .  S
C4893      C4894   1.398   1_455  A
C4893      C4898   1.398       .  A
C4893      H4899   1.083       .  S
C4894      C4895   1.401       .  A
C4895      C4896   1.390       .  A
C4895      H4900   1.082       .  S
C4896      C4897   1.401   1_655  A
C4896      H4901   1.083       .  S
C4897      C4898   1.409       .  A
C4898      H4902   1.083       .  S
C4903      C4904   1.401       .  A
C4903      C4908   1.401       .  A
C4903      H4909   1.083       .  S
C4904      C4905   1.405       .  A
C4905      C4906   1.399       .  A
C4905      H4910   1.082       .  S
C4906      C4907   1.402       .  A
C4906      H4911   1.084       .  S
C4907      C4908   1.407       .  A
C4908      H4912   1.083       .  S
C4913      C4914   1.401       .  A
C4913      C4918   1.389       .  A
C4913      H4919   1.083       .  S
C4914      C4915   1.409       .  A
C4915      C4916   1.398       .  A
C4915      H4920   1.083       .  S
C4916      C4917   1.398       .  A
C4916      H4921   1.083       .  S
C4917      C4918   1.402       .  A
C4918      H4922   1.083       .  S
C4923      C4924   1.405       .  A
C4923      C4928   1.404       .  A
C4923      H4929   1.083       .  S
C4924      C4925   1.405       .  A
C4925      C4926   1.404       .  A
C4925      H4930   1.084       .  S
C4926      C4927   1.404       .  A
C4926      H4931   1.083       .  S
C4927      C4928   1.405       .  A
C4928      H4932   1.084       .  S
C4933      C4934   1.405       .  A
C4933      C4938   1.400   1_655  A
C4933      H4939   1.083       .  S
C4934      C4935   1.407       .  A
C4935      C4936   1.399   1_655  A
C4935      H4940   1.083       .  S
C4936      C4937   1.405       .  A
C4936      H4941   1.083       .  S
C4937      C4938   1.408       .  A
C4938      H4942   1.083       .  S
C4943      C4944   1.409       .  A
C4943      C4948   1.398       .  A
C4943      H4949   1.083       .  S
C4944      C4945   1.401       .  A
C4945      C4946   1.389       .  A
C4945      H4950   1.083       .  S
C4946      C4947   1.402       .  A
C4946      H4951   1.083       .  S
C4947      C4948   1.398       .  A
C4948      H4952   1.083       .  S
C4953      C4954   1.406       .  A
C4953      C4958   1.407       .  A
C4953      H4959   1.083       .  S
C4954      C4955   1.406       .  A
C4955      C4956   1.405       .  A
C4955      H4960   1.084       .  S
C4956      C4957   1.405       .  A
C4956      H4961   1.083       .  S
C4957      C4958   1.406       .  A
C4958      H4962   1.084       .  S
C4963      C4964   1.406       .  A
C4963      C4968   1.399       .  A
C4963      H4969   1.083       .  S
C4964      C4965   1.402       .  A
C4965      C4966   1.401       .  A
C4965      H4970   1.083       .  S
C4966      C4967   1.407       .  A
C4966      H4971   1.083       .  S
C4967      C4968   1.402       .  A
C4968      H4972   1.084       .  S
C4973      C4974   1.401       .  A
C4973      C4978   1.389       .  A
C4973      H4979   1.083       .  S
C4974      C4975   1.398       .  A
C4975      C4976   1.397       .  A
C4975      H4980   1.083       .  S
C4976      C4977   1.409       .  A
C4976      H4981   1.083       .  S
C4977      C4978   1.400       .  A
C4978      H4982   1.083       .  S
C4983      C4984   1.407       .  A
C4983      C4988   1.408       .  A
C4983      H4989   1.083       .  S
C4984      C4985   1.404       .  A
C4985      C4986   1.390       .  A
C4985      H4990   1.084       .  S
C4986      C4987   1.403       .  A
C4986      H4991   1.084       .  S
C4987      C4988   1.407       .  A
C4988      H4992   1.083       .  S
