geometry optimzed in LAMMPS
_audit_creation_date              2020-12-01 
_audit_creation_method            'lammps2cif' 
_symmetry_space_group_name_H-M    'P1' 
_symmetry_Int_Tables_number       1 
_symmetry_cell_setting            triclinic 
loop_ 
_symmetry_equiv_pos_as_xyz 
  x,y,z 
_cell_length_a                    37.23730713 
_cell_length_b                    37.26059134871865 
_cell_length_c                    37.253375035804346 
_cell_angle_alpha                 89.86811658572289 
_cell_angle_beta                  89.99144496938291 
_cell_angle_gamma                 89.86844420418173 
loop_ 
_atom_site_label 
_atom_site_type_symbol 
_atom_site_fract_x 
_atom_site_fract_y 
_atom_site_fract_z 
_atom_site_charge 
Fe1        Fe  0.76817240  0.81625390  0.61624675     1.65800
Fe2        Fe  0.71961470  0.85422826  0.54908483     1.73200
Fe3        Fe  0.78331962  0.78957362  0.53051888     1.54400
O4          O  0.83252535  0.79776562  0.55628734    -0.83100
O5          O  0.69514328  0.81652653  0.51707427    -0.81500
O6          O  0.82176414  0.82682636  0.60762919    -0.85700
O7          O  0.77786762  0.76235251  0.61512600    -0.80500
O8          O  0.79406134  0.83249293  0.49719527    -0.82300
O9          O  0.68425679  0.83935145  0.58980509    -0.85000
C10         C  0.77769569  0.73707766  0.59266009     0.95700
C11         C  0.84332010  0.81344851  0.58473967     1.03200
O12         O  0.75714123  0.82020317  0.56502603    -1.14000
O13         O  0.73829915  0.89685084  0.57956329    -0.76400
O14         O  0.75963599  0.86943775  0.62788831    -0.79900
O15         O  0.77577413  0.74232592  0.55912192    -0.80600
C16         C  0.74889533  0.89745240  0.61193778     0.94600
O17         O  0.71551686  0.80450890  0.62750503    -0.78600
O18         O  0.75008291  0.87237678  0.50594475    -0.83800
C19         C  0.70550233  0.78957510  0.49907462     0.97300
C20         C  0.77753314  0.86120603  0.48883486     1.03200
O21         O  0.73744046  0.77739459  0.50089377    -0.79400
C22         C  0.68612451  0.81780793  0.61630928     1.01500
Fe23       Fe  0.80081720  0.88297795  0.27166182     1.65800
Fe24       Fe  0.77568779  0.96908003  0.28573690     1.73200
Fe25       Fe  0.83879092  0.94858258  0.22184645     1.54400
O26         O  0.88153130  0.91970945  0.24277719    -0.83100
O27         O  0.76491640  0.99909186  0.23978052    -0.81500
O28         O  0.85391557  0.87066488  0.26208462    -0.85700
O29         O  0.78751531  0.87146997  0.21944705    -0.80500
O30         O  0.85593467  0.99368024  0.25014606    -0.82300
O31         O  0.72815913  0.94190485  0.27667044    -0.85000
C32         C  0.80195744  0.88100805  0.19005893     0.95700
C33         C  0.88213019  0.88707049  0.25262143     1.03200
O34         O  0.80534541  0.93380610  0.25992192    -1.14000
O35         O  0.78247569  0.94287704  0.33501950    -0.76400
O36         O  0.81282552  0.89213150  0.32479123    -0.79900
O37         O  0.82501910  0.90610943  0.18813287    -0.80600
C38         C  0.79882232  0.91481723  0.34612521     0.94600
O39         O  0.74700525  0.88558996  0.28241557    -0.78600
O40         O  0.81957450  0.00065513  0.29725880    -0.83800
C41         C  0.77482656  0.99829140  0.20707273     0.97300
C42         C  0.84664352  0.01004090  0.27872277     1.03200
O43         O  0.80001259  0.97819521  0.19610925    -0.79400
C44         C  0.72220047  0.90863621  0.27990182     1.01500
Fe45       Fe  0.11326677  0.78353027  0.68045564     1.65800
Fe46       Fe  0.02843146  0.79552228  0.71030552     1.73200
Fe47       Fe  0.04670739  0.73307423  0.64479381     1.54400
O48         O  0.07496250  0.75294167  0.60116892    -0.83100
O49         O  0.99916286  0.74928936  0.72184855    -0.81500
O50         O  0.12354368  0.77526940  0.62698622    -0.85700
O51         O  0.12618675  0.73139896  0.69226550    -0.80500
O52         O  0.00220610  0.76283436  0.62849970    -0.82300
O53         O  0.05842236  0.78568061  0.75629043    -0.85000
C54         C  0.11545171  0.70154349  0.67992623     0.95700
C55         C  0.10698722  0.76433341  0.59951269     1.03200
O56         O  0.06249650  0.77081638  0.67822776    -1.14000
O57         O  0.05391462  0.84521832  0.70380350    -0.76400
O58         O  0.10256993  0.83662320  0.66985661    -0.79900
O59         O  0.08895491  0.69874969  0.65849572    -0.80600
C60         C  0.08106914  0.85716013  0.68661542     0.94600
O61         O  0.11337601  0.79324035  0.73446370    -0.78600
O62         O  0.99457112  0.80746116  0.66788159    -0.83800
C63         C  0.99868178  0.71718933  0.71027150     0.97300
C64         C  0.98553133  0.79063323  0.63956978     1.03200
O65         O  0.01699365  0.70731003  0.68340099    -0.79400
C66         C  0.09195671  0.78962255  0.76049328     1.01500
Fe67       Fe  0.21338622  0.18929131  0.37524745     1.65800
Fe68       Fe  0.20152468  0.21776335  0.46071739     1.73200
Fe69       Fe  0.26570867  0.15396254  0.44108886     1.54400
O70         O  0.24685252  0.11046162  0.41246312    -0.83100
O71         O  0.24827167  0.23088483  0.48878629    -0.81500
O72         O  0.22220956  0.13599991  0.36468136    -0.85700
O73         O  0.26527555  0.20168982  0.36156485    -0.80500
O74         O  0.23697172  0.13593112  0.48552756    -0.82300
O75         O  0.20832341  0.26445761  0.43098003    -0.85000
C76         C  0.29564466  0.19014767  0.37207898     0.95700
C77         C  0.23440285  0.10873443  0.38086156     1.03200
O78         O  0.22677935  0.18677963  0.42594469    -1.14000
O79         O  0.15141020  0.20946544  0.43643265    -0.76400
O80         O  0.16038770  0.17807503  0.38620984    -0.79900
O81         O  0.29933406  0.16913332  0.39885114    -0.80600
C82         C  0.13960978  0.19299168  0.40882418     0.94600
O83         O  0.20296804  0.24314722  0.37563107    -0.78600
O84         O  0.19205542  0.17477605  0.49458428    -0.83800
C85         C  0.28057740  0.21957013  0.48916534     0.97300
C86         C  0.20929872  0.14637792  0.50277879     1.03200
O87         O  0.29059574  0.19256479  0.47118317    -0.79400
C88         C  0.20479704  0.26896219  0.39743759     1.01500
Fe89       Fe  0.17889419  0.12523024  0.71704006     1.65800
Fe90       Fe  0.14438085  0.05965445  0.76999389     1.73200
Fe91       Fe  0.20910750  0.04042494  0.70697822     1.54400
O92         O  0.20197201  0.06465438  0.65675386    -0.83100
O93         O  0.18339085  0.03040412  0.79615081    -0.81500
O94         O  0.16747671  0.11305689  0.66443765    -0.85700
O95         O  0.23273198  0.12537872  0.70623197    -0.80500
O96         O  0.16658017  0.00644753  0.69639345    -0.82300
O97         O  0.15810682  0.10278744  0.80271221    -0.85000
C98         C  0.25899770  0.10423780  0.71009130     0.95700
C99         C  0.18407574  0.09111335  0.64425676     1.03200
O100        O  0.17723290  0.07481989  0.73134171    -1.14000
O101        O  0.10034988  0.08729302  0.74989358    -0.76400
O102        O  0.12561012  0.13543395  0.72593241    -0.79900
O103        O  0.25510169  0.07083962  0.71547078    -0.80600
C104        C  0.09838395  0.11904072  0.73768500     0.94600
O105        O  0.19115413  0.13962842  0.76868193    -0.78600
O106        O  0.12800108  0.01445755  0.74174186    -0.83800
C107        C  0.20968858  0.01143406  0.78580397     0.97300
C108        C  0.13858936  0.99756459  0.71393094     1.03200
O109        O  0.22090451  0.01186738  0.75355464    -0.79400
C110        C  0.17896286  0.12958200  0.79894904     1.01500
Fe111      Fe  0.87107455  0.22581995  0.30858332     1.65800
Fe112      Fe  0.93749358  0.27658037  0.34419034     1.73200
Fe113      Fe  0.95658706  0.21232350  0.28085822     1.54400
O114        O  0.93076243  0.16297003  0.28760741    -0.83100
O115        O  0.96668724  0.30167734  0.30467591    -0.81500
O116        O  0.88092102  0.17242307  0.31948590    -0.85700
O117        O  0.87200026  0.21612783  0.25461492    -0.80500
O118        O  0.98928997  0.20086644  0.32430205    -0.82300
O119        O  0.89490945  0.31058236  0.33054993    -0.85000
C120        C  0.89428407  0.21846403  0.22914344     0.95700
C121        C  0.90295517  0.15146690  0.30395005     1.03200
O122        O  0.92194111  0.23811398  0.31147527    -1.14000
O123        O  0.90932979  0.25692467  0.38794558    -0.76400
O124        O  0.86079856  0.23442304  0.36196975    -0.79900
O125        O  0.92780810  0.22139818  0.23409760    -0.80600
C126        C  0.87728756  0.24548701  0.38947474     0.94600
O127        O  0.85801441  0.27805205  0.29647478    -0.78600
O128        O  0.98244746  0.24763084  0.36114349    -0.83800
C129        C  0.98592273  0.29073482  0.27884849     0.97300
C130        C  0.99861844  0.21893974  0.35171154     1.03200
O131        O  0.98637248  0.25806790  0.26899327    -0.79400
C132        C  0.86825782  0.30786272  0.30932530     1.01500
Fe133      Fe  0.71668660  0.31789890  0.61588594     1.65800
Fe134      Fe  0.70351667  0.29087046  0.53031830     1.73200
Fe135      Fe  0.76764427  0.35445953  0.54979430     1.54400
O136        O  0.74878102  0.39757714  0.57929892    -0.83100
O137        O  0.74972951  0.27839259  0.50149541    -0.81500
O138        O  0.72547997  0.37106923  0.62720324    -0.85700
O139        O  0.76883065  0.30528751  0.62824378    -0.80500
O140        O  0.73827309  0.37280194  0.50585293    -0.82300
O141        O  0.71147980  0.24380031  0.55895770    -0.85000
C142        C  0.79887840  0.31728380  0.61751649     0.95700
C143        C  0.73706521  0.39870369  0.61124877     1.03200
O144        O  0.72913525  0.32137917  0.56506911    -1.14000
O145        O  0.65374983  0.29860856  0.55545972    -0.76400
O146        O  0.66337478  0.32912049  0.60606408    -0.79900
O147        O  0.80191566  0.33901288  0.59128823    -0.80600
C148        C  0.64228562  0.31471013  0.58344563     0.94600
O149        O  0.70672418  0.26403917  0.61474610    -0.78600
O150        O  0.69317638  0.33424146  0.49738843    -0.83800
C151        C  0.78207675  0.28929204  0.50109301     0.97300
C152        C  0.71031966  0.36254807  0.48902607     1.03200
O153        O  0.79244588  0.31604571  0.51917947    -0.79400
C154        C  0.70871153  0.23866997  0.59243625     1.01500
Fe155      Fe  0.68027791  0.38539949  0.27543863     1.65800
Fe156      Fe  0.64360301  0.45013671  0.22327297     1.73200
Fe157      Fe  0.70762782  0.47079751  0.28617144     1.54400
O158        O  0.70161478  0.44540304  0.33601672    -0.83100
O159        O  0.68177797  0.48021309  0.19717029    -0.81500
O160        O  0.66718357  0.39718240  0.32771892    -0.85700
O161        O  0.73385767  0.38724312  0.28787356    -0.80500
O162        O  0.66408192  0.50310064  0.29765257    -0.82300
O163        O  0.65859129  0.40712042  0.19055657    -0.85000
C164        C  0.75943123  0.40892659  0.28300763     0.95700
C165        C  0.68380473  0.41878915  0.34819440     1.03200
O166        O  0.67690356  0.43576490  0.26161399    -1.14000
O167        O  0.60045648  0.42140188  0.24346207    -0.76400
O168        O  0.62755585  0.37295967  0.26478588    -0.79900
O169        O  0.75443447  0.44198659  0.27659169    -0.80600
C170        C  0.59968013  0.38891405  0.25366611     0.94600
O171        O  0.69429767  0.37200480  0.22392141    -0.78600
O172        O  0.62616362  0.49507690  0.25177385    -0.83800
C173        C  0.70712156  0.50028023  0.20756831     0.97300
C174        C  0.63620732  0.51186604  0.27987064     1.03200
O175        O  0.71804193  0.50053900  0.23993146    -0.79400
C176        C  0.68088245  0.38126891  0.19389013     1.01500
Fe177      Fe  0.30312588  0.62711450  0.72006618     1.65800
Fe178      Fe  0.27693189  0.54126539  0.70620436     1.73200
Fe179      Fe  0.34114416  0.56087351  0.76961458     1.54400
O180        O  0.38383965  0.59040046  0.74967070    -0.83100
O181        O  0.26513058  0.51204335  0.75247553    -0.81500
O182        O  0.35624867  0.63896796  0.72904093    -0.85700
O183        O  0.29067324  0.63885032  0.77245366    -0.80500
O184        O  0.35896013  0.51687360  0.74030492    -0.82300
O185        O  0.22956097  0.56943513  0.71397901    -0.85000
C186        C  0.30465469  0.62856488  0.80184973     0.95700
C187        C  0.38438256  0.62284467  0.73926526     1.03200
O188        O  0.30725094  0.57616350  0.73185322    -1.14000
O189        O  0.28454157  0.56682812  0.65676639    -0.76400
O190        O  0.31439466  0.61781747  0.66673664    -0.79900
O191        O  0.32680709  0.60258195  0.80389073    -0.80600
C192        C  0.30047475  0.59500223  0.64553368     0.94600
O193        O  0.24927878  0.62545326  0.70974528    -0.78600
O194        O  0.32031448  0.50859159  0.69530117    -0.83800
C195        C  0.27645831  0.51154416  0.78472854     0.97300
C196        C  0.34867116  0.50016900  0.71235496     1.03200
O197        O  0.30299558  0.53013802  0.79498177    -0.79400
C198        C  0.22412256  0.60283336  0.71084667     1.01500
Fe199      Fe  0.37214676  0.28676729  0.67982794     1.65800
Fe200      Fe  0.43813741  0.23387275  0.64562804     1.73200
Fe201      Fe  0.45726593  0.29790762  0.70903816     1.54400
O202        O  0.43215066  0.34761394  0.70212242    -0.83100
O203        O  0.46831484  0.20883066  0.68471245    -0.81500
O204        O  0.38373356  0.33948760  0.66792850    -0.85700
O205        O  0.37251503  0.29774289  0.73367489    -0.80500
O206        O  0.49059656  0.30874206  0.66602666    -0.82300
O207        O  0.39546823  0.20066565  0.66085935    -0.85000
C208        C  0.39403396  0.29380591  0.75960717     0.95700
C209        C  0.40539035  0.35985175  0.68457641     1.03200
O210        O  0.42277735  0.27286280  0.67785007    -1.14000
O211        O  0.40936957  0.25240628  0.60154310    -0.76400
O212        O  0.36152948  0.27735454  0.62662254    -0.79900
O213        O  0.42745872  0.28886540  0.75527260    -0.80600
C214        C  0.37755189  0.26457339  0.59959422     0.94600
O215        O  0.35792257  0.23512668  0.69267861    -0.78600
O216        O  0.48300704  0.26284960  0.62807364    -0.83800
C217        C  0.48755611  0.21979203  0.71047353     0.97300
C218        C  0.49974878  0.29095184  0.63830897     1.03200
O219        O  0.48699544  0.25219594  0.72099804    -0.79400
C220        C  0.36828534  0.20466388  0.68132983     1.01500
Fe221      Fe  0.61258625  0.72810763  0.30413827     1.65800
Fe222      Fe  0.52665593  0.71423120  0.27853698     1.73200
Fe223      Fe  0.54666564  0.77732847  0.34272573     1.54400
O224        O  0.57679757  0.75751042  0.38530921    -0.83100
O225        O  0.49734876  0.76037355  0.26682232    -0.81500
O226        O  0.62535072  0.73835197  0.35685525    -0.85700
O227        O  0.62344218  0.78031936  0.29051218    -0.80500
O228        O  0.50251380  0.74800136  0.36075561    -0.82300
O229        O  0.55466042  0.72267138  0.23114038    -0.85000
C230        C  0.61342875  0.80968958  0.30464794     0.95700
C231        C  0.60965157  0.74831520  0.38526343     1.03200
O232        O  0.56164678  0.73968642  0.30878185    -1.14000
O233        O  0.55263655  0.66493542  0.28610621    -0.76400
O234        O  0.60344739  0.67499898  0.31648165    -0.79900
O235        O  0.58827691  0.81159462  0.32774412    -0.80600
C236        C  0.58076924  0.65377126  0.30232066     0.94600
O237        O  0.61067168  0.71669980  0.25046483    -0.78600
O238        O  0.49385413  0.70323536  0.32195249    -0.83800
C239        C  0.49710485  0.79257504  0.27813195     0.97300
C240        C  0.48539003  0.72033838  0.35025710     1.03200
O241        O  0.51572374  0.80265759  0.30471196    -0.79400
C242        C  0.58795775  0.71893027  0.22542830     1.01500
Fe243      Fe  0.27004925  0.69078348  0.37516141     1.65800
Fe244      Fe  0.21948570  0.65478888  0.44158724     1.73200
Fe245      Fe  0.28254647  0.71962059  0.46013508     1.54400
O246        O  0.33235838  0.71196186  0.43473359    -0.83100
O247        O  0.19410815  0.69353291  0.47130514    -0.81500
O248        O  0.32308008  0.67896344  0.38558401    -0.85700
O249        O  0.28119844  0.74456551  0.37551486    -0.80500
O250        O  0.29351770  0.67718339  0.49406567    -0.82300
O251        O  0.18547571  0.66907249  0.39932362    -0.85000
C252        C  0.27818481  0.77038826  0.39720467     0.95700
C253        C  0.34400693  0.69486025  0.40736056     1.03200
O254        O  0.25752114  0.68805896  0.42594826    -1.14000
O255        O  0.23872383  0.61117996  0.41289740    -0.76400
O256        O  0.26005129  0.63763195  0.36410545    -0.79900
O257        O  0.27388489  0.76588398  0.43058271    -0.80600
C258        C  0.24879021  0.61002892  0.38038210     0.94600
O259        O  0.21803601  0.70386035  0.36277056    -0.78600
O260        O  0.24898141  0.63781974  0.48616819    -0.83800
C261        C  0.20382542  0.72073426  0.48909755     0.97300
C262        C  0.27664898  0.64889244  0.50302659     1.03200
O263        O  0.23603340  0.73213084  0.48882261    -0.79400
C264        C  0.18823034  0.69088829  0.37307390     1.01500
Fe265      Fe  0.80647639  0.62521330  0.77390721     1.65800
Fe266      Fe  0.84317869  0.55933023  0.72314670     1.73200
Fe267      Fe  0.77810610  0.53989386  0.78589616     1.54400
O268        O  0.78561431  0.56455832  0.83584625    -0.83100
O269        O  0.80494416  0.52914882  0.69761368    -0.81500
O270        O  0.81781871  0.61429964  0.82686201    -0.85700
O271        O  0.75256888  0.62465008  0.78428209    -0.80500
O272        O  0.82072558  0.50604087  0.79668003    -0.82300
O273        O  0.82863751  0.60161448  0.68912998    -0.85000
C274        C  0.72689575  0.60284338  0.78107849     0.95700
C275        C  0.80269226  0.59179007  0.84763352     1.03200
O276        O  0.80953605  0.57450332  0.76108824    -1.14000
O277        O  0.88639377  0.58824473  0.74277254    -0.76400
O278        O  0.85963851  0.63647260  0.76488183    -0.79900
O279        O  0.73162783  0.56941935  0.77724435    -0.80600
C280        C  0.88739593  0.62044401  0.75369818     0.94600
O281        O  0.79407440  0.63821612  0.72186378    -0.78600
O282        O  0.86044446  0.51476008  0.75250143    -0.83800
C283        C  0.77797488  0.51092794  0.70737647     0.97300
C284        C  0.84924202  0.49747077  0.77989720     1.03200
O285        O  0.76613701  0.51140055  0.73941253    -0.79400
C286        C  0.80689299  0.62792308  0.69198580     1.01500
Fe287      Fe  0.87180144  0.28032884  0.80564992     1.65800
Fe288      Fe  0.95789553  0.29417988  0.77997054     1.73200
Fe289      Fe  0.93767001  0.23102786  0.84445973     1.54400
O290        O  0.90767682  0.25094250  0.88676841    -0.83100
O291        O  0.98699896  0.24776824  0.76838787    -0.81500
O292        O  0.85932383  0.27136068  0.85869759    -0.85700
O293        O  0.86039995  0.22800954  0.79319323    -0.80500
O294        O  0.98153244  0.26047590  0.86252126    -0.82300
O295        O  0.93018650  0.28600373  0.73255663    -0.85000
C296        C  0.87062085  0.19857918  0.80712836     0.95700
C297        C  0.87516323  0.26116420  0.88698854     1.03200
O298        O  0.92273327  0.26868418  0.81027857    -1.14000
O299        O  0.93219432  0.34374360  0.78722384    -0.76400
O300        O  0.88090712  0.33363327  0.81674783    -0.79900
O301        O  0.89619544  0.19654283  0.82972607    -0.80600
C302        C  0.90380065  0.35490349  0.80294631     0.94600
O303        O  0.87396293  0.29034434  0.75178974    -0.78600
O304        O  0.99032874  0.30510810  0.82342910    -0.83800
C305        C  0.98707714  0.21556395  0.77991103     0.97300
C306        C  0.99848335  0.28825230  0.85200242     1.03200
O307        O  0.96861589  0.20571183  0.80670992    -0.79400
C308        C  0.89681351  0.28863826  0.72682801     1.01500
Fe309      Fe  0.76820078  0.69477169  0.11428703     1.65800
Fe310      Fe  0.78366811  0.72009452  0.02845053     1.73200
Fe311      Fe  0.71937130  0.65677782  0.04800069     1.54400
O312        O  0.73818519  0.61408487  0.07847378    -0.83100
O313        O  0.73845336  0.73149876  0.99772894    -0.81500
O314        O  0.75817920  0.64202317  0.12689059    -0.85700
O315        O  0.71582935  0.70819341  0.12512377    -0.80500
O316        O  0.74952618  0.63828559  0.00465466    -0.82300
O317        O  0.77444083  0.76771417  0.05578000    -0.85000
C318        C  0.68641877  0.69437124  0.11488935     0.95700
C319        C  0.74780258  0.61385535  0.11115124     1.03200
O320        O  0.75720474  0.69027966  0.06329871    -1.14000
O321        O  0.83243221  0.71316790  0.05535263    -0.76400
O322        O  0.82148087  0.68260865  0.10581962    -0.79900
O323        O  0.68446432  0.67201316  0.08914443    -0.80600
C324        C  0.84311938  0.69706830  0.08368069     0.94600
O325        O  0.77920648  0.74836367  0.11197459    -0.78600
O326        O  0.79542288  0.67606198  0.99691915    -0.83800
C327        C  0.70600983  0.72091903  0.99732278     0.97300
C328        C  0.77806039  0.64796347  0.98839727     1.03200
O329        O  0.69503870  0.69500501  0.01645816    -0.79400
C330        C  0.77722552  0.77338189  0.08917285     1.01500
Fe331      Fe  0.17877799  0.38360623  0.21603206     1.65800
Fe332      Fe  0.20484029  0.46995898  0.20472782     1.73200
Fe333      Fe  0.14059488  0.44824634  0.26763170     1.54400
O334        O  0.09827892  0.41829829  0.24771137    -0.83100
O335        O  0.21608586  0.49840469  0.25154248    -0.81500
O336        O  0.12561416  0.37120728  0.22384082    -0.85700
O337        O  0.19046218  0.36982975  0.26801651    -0.80500
O338        O  0.12183031  0.49240231  0.23854822    -0.82300
O339        O  0.25224879  0.44183295  0.21260796    -0.85000
C340        C  0.17778992  0.37964984  0.29810770     0.95700
C341        C  0.09765484  0.38654721  0.23552425     1.03200
O342        O  0.17454576  0.43417126  0.22943109    -1.14000
O343        O  0.19830419  0.44563638  0.15448268    -0.76400
O344        O  0.16810101  0.39460982  0.16297970    -0.79900
O345        O  0.15629015  0.40611049  0.30143961    -0.80600
C346        C  0.18255813  0.41774134  0.14246053     0.94600
O347        O  0.23287803  0.38582217  0.20669720    -0.78600
O348        O  0.16108821  0.50240233  0.19426675    -0.83800
C349        C  0.20436976  0.49855977  0.28365186     0.97300
C350        C  0.13230643  0.50997283  0.21105340     1.03200
O351        O  0.17790909  0.47958470  0.29344357    -0.79400
C352        C  0.25790563  0.40852546  0.20892765     1.01500
Fe353      Fe  0.11178899  0.72538169  0.18338739     1.65800
Fe354      Fe  0.04588677  0.77766447  0.14761405     1.73200
Fe355      Fe  0.02605417  0.71393720  0.21199496     1.54400
O356        O  0.04967024  0.66369429  0.20356130    -0.83100
O357        O  0.01422122  0.80215999  0.18559805    -0.81500
O358        O  0.10070027  0.67221745  0.17326334    -0.85700
O359        O  0.11130503  0.71628145  0.23749863    -0.80500
O360        O  0.99201401  0.70489978  0.16941355    -0.82300
O361        O  0.08727718  0.81169559  0.16364704    -0.85000
C362        C  0.08921206  0.71762883  0.26316604     0.95700
C363        C  0.07737490  0.65168144  0.18738254     1.03200
O364        O  0.06101594  0.73893757  0.18076186    -1.14000
O365        O  0.07610472  0.75982029  0.10428496    -0.76400
O366        O  0.12265568  0.73302835  0.12994813    -0.79900
O367        O  0.05566097  0.72047172  0.25853585    -0.80600
C368        C  0.10744181  0.74643886  0.10271744     0.94600
O369        O  0.12584785  0.77739604  0.19447610    -0.78600
O370        O  0.00222073  0.74815688  0.12897016    -0.83800
C371        C  0.99661846  0.79230455  0.21298053     0.97300
C372        C  0.98434311  0.72128343  0.14041456     1.03200
O373        O  0.99813856  0.76045862  0.22520170    -0.79400
C374        C  0.11480631  0.80783335  0.18359150     1.01500
Fe375      Fe  0.21227946  0.31787263  0.87509524     1.65800
Fe376      Fe  0.26477568  0.35315098  0.93995238     1.73200
Fe377      Fe  0.20098113  0.29010536  0.96056955     1.54400
O378        O  0.15116829  0.29679460  0.93530480    -0.83100
O379        O  0.29062585  0.31371535  0.96875685    -0.81500
O380        O  0.15983969  0.33089731  0.88678489    -0.85700
O381        O  0.20014099  0.26437677  0.87678507    -0.80500
O382        O  0.18988557  0.33367133  0.99285828    -0.82300
O383        O  0.29717135  0.33908096  0.89638813    -0.85000
C384        C  0.20465646  0.23875345  0.89859577     0.95700
C385        C  0.13917928  0.31452237  0.90848892     1.03200
O386        O  0.22597671  0.32063061  0.92548406    -1.14000
O387        O  0.24451885  0.39693384  0.91215232    -0.76400
O388        O  0.22277172  0.37078611  0.86349191    -0.79900
O389        O  0.21014401  0.24349600  0.93179606    -0.80600
C390        C  0.23383744  0.39834299  0.87984316     0.94600
O391        O  0.26385428  0.30383890  0.86119664    -0.78600
O392        O  0.23686029  0.37022314  0.98544752    -0.83800
C393        C  0.27994527  0.28836619  0.98877342     0.97300
C394        C  0.20820190  0.36102278  0.00182961     1.03200
O395        O  0.24722492  0.27865050  0.98993682    -0.79400
C396        C  0.29384309  0.31730701  0.87025915     1.01500
Fe397      Fe  0.61313466  0.78447164  0.80383813     1.65800
Fe398      Fe  0.54858775  0.73348121  0.84237018     1.73200
Fe399      Fe  0.52652161  0.79738252  0.77943500     1.54400
O400        O  0.55186956  0.84715593  0.78612367    -0.83100
O401        O  0.51794927  0.70792002  0.80448071    -0.81500
O402        O  0.60299515  0.83733534  0.81596793    -0.85700
O403        O  0.61011074  0.79545328  0.75012566    -0.80500
O404        O  0.49487671  0.80792351  0.82377779    -0.82300
O405        O  0.59107450  0.70011691  0.82715567    -0.85000
C406        C  0.58700623  0.79311800  0.72544960     0.95700
C407        C  0.58003293  0.85849014  0.80200914     1.03200
O408        O  0.56248394  0.77187163  0.80875309    -1.14000
O409        O  0.57816874  0.75383648  0.88463186    -0.76400
O410        O  0.62621332  0.77487448  0.85660444    -0.79900
O411        O  0.55378593  0.78927653  0.73158988    -0.80600
C412        C  0.61055268  0.76431502  0.88483549     0.94600
O413        O  0.62577787  0.73255554  0.79057249    -0.78600
O414        O  0.50390602  0.76169014  0.86097532    -0.83800
C415        C  0.49788519  0.71850461  0.77909182     0.97300
C416        C  0.48674108  0.78984476  0.85162838     1.03200
O417        O  0.49721544  0.75103032  0.76850298    -0.79400
C418        C  0.61660270  0.70283067  0.80454549     1.01500
Fe419      Fe  0.27286692  0.81568887  0.87679836     1.65800
Fe420      Fe  0.28400449  0.78972238  0.96274158     1.73200
Fe421      Fe  0.21963107  0.85184767  0.94056757     1.54400
O422        O  0.23990276  0.89525489  0.91238569    -0.83100
O423        O  0.23757728  0.77891954  0.99248660    -0.81500
O424        O  0.26142358  0.86831205  0.86402051    -0.85700
O425        O  0.22168670  0.80071713  0.86315615    -0.80500
O426        O  0.24690078  0.86955471  0.98614494    -0.82300
O427        O  0.27495845  0.74258392  0.93498071    -0.85000
C428        C  0.19145029  0.81421008  0.87152157     0.95700
C429        C  0.25037590  0.89617882  0.88000263     1.03200
O430        O  0.25887563  0.81936416  0.92700079    -1.14000
O431        O  0.33404171  0.79591849  0.93714763    -0.76400
O432        O  0.32493489  0.82967526  0.88844251    -0.79900
O433        O  0.18769709  0.83683129  0.89690635    -0.80600
C434        C  0.34584157  0.81351893  0.91012260     0.94600
O435        O  0.28603200  0.76226701  0.87974579    -0.78600
O436        O  0.29476155  0.83400971  0.99398362    -0.83800
C437        C  0.20469042  0.78830777  0.99069968     0.97300
C438        C  0.27567624  0.86098301  0.00273945     1.03200
O439        O  0.19391604  0.81284072  0.96970822    -0.79400
C440        C  0.28119770  0.73710593  0.90203229     1.01500
Fe441      Fe  0.68268482  0.12639594  0.77348226     1.65800
Fe442      Fe  0.70744862  0.04016145  0.78634442     1.73200
Fe443      Fe  0.64419945  0.06179733  0.72271716     1.54400
O444        O  0.60174969  0.09197892  0.74257019    -0.83100
O445        O  0.71824840  0.01030230  0.74030589    -0.81500
O446        O  0.63015479  0.13990789  0.76296054    -0.85700
O447        O  0.69674022  0.13832150  0.72160809    -0.80500
O448        O  0.62558358  0.01742807  0.75154546    -0.82300
O449        O  0.75506393  0.06726454  0.77731461    -0.85000
C450        C  0.68298784  0.12903501  0.69183092     0.95700
C451        C  0.60179375  0.12456327  0.75243024     1.03200
O452        O  0.67780535  0.07581801  0.76094748    -1.14000
O453        O  0.70098788  0.06609667  0.83588915    -0.76400
O454        O  0.66973497  0.11646792  0.82632655    -0.79900
O455        O  0.65997409  0.10390576  0.68913014    -0.80600
C456        C  0.68454098  0.09393585  0.84738187     0.94600
O457        O  0.73630831  0.12325168  0.78532413    -0.78600
O458        O  0.66329569  0.00880702  0.79746898    -0.83800
C459        C  0.70755189  0.01067730  0.70784803     0.97300
C460        C  0.63540029  0.00042547  0.77967595     1.03200
O461        O  0.68203137  0.03063044  0.69728656    -0.79400
C462        C  0.76110532  0.10032845  0.78196343     1.01500
Fe463      Fe  0.37065625  0.22842502  0.18316921     1.65800
Fe464      Fe  0.45641967  0.21520545  0.21042795     1.73200
Fe465      Fe  0.43676651  0.27894584  0.14610246     1.54400
O466        O  0.40741156  0.25944793  0.10304728    -0.83100
O467        O  0.48572709  0.26139286  0.22205958    -0.81500
O468        O  0.35948064  0.23656689  0.12980429    -0.85700
O469        O  0.35790209  0.28066996  0.19486727    -0.80500
O470        O  0.48110086  0.24972971  0.12850543    -0.82300
O471        O  0.42776963  0.22325912  0.25752836    -0.85000
C472        C  0.36834951  0.31047426  0.18204863     0.95700
C473        C  0.37547761  0.24766158  0.10198179     1.03200
O474        O  0.42153936  0.24076460  0.17967758    -1.14000
O475        O  0.43111456  0.16546545  0.20338863    -0.76400
O476        O  0.38047049  0.17503978  0.17271487    -0.79900
O477        O  0.39483947  0.31322579  0.16061219    -0.80600
C478        C  0.40302624  0.15400283  0.18747201     0.94600
O479        O  0.37189753  0.21894055  0.23718759    -0.78600
O480        O  0.48937156  0.20450996  0.16718147    -0.83800
C481        C  0.48639971  0.29363250  0.21065591     0.97300
C482        C  0.49808508  0.22190161  0.13907437     1.03200
O483        O  0.46753923  0.30411219  0.18430512    -0.79400
C484        C  0.39425563  0.22039579  0.26261705     1.01500
Fe485      Fe  0.71363731  0.19262439  0.11628838     1.65800
Fe486      Fe  0.76497974  0.15641945  0.05056628     1.73200
Fe487      Fe  0.70138380  0.22071487  0.03091614     1.54400
O488        O  0.65169897  0.21397575  0.05639451    -0.83100
O489        O  0.79017279  0.19480939  0.02002283    -0.81500
O490        O  0.66078502  0.18100632  0.10566428    -0.85700
O491        O  0.70273271  0.24628523  0.11536185    -0.80500
O492        O  0.69028816  0.17755644  0.99782571    -0.82300
O493        O  0.79879266  0.17124822  0.09270111    -0.85000
C494        C  0.70621428  0.27196855  0.09352876     0.95700
C495        C  0.63996950  0.19694263  0.08374076     1.03200
O496        O  0.72659305  0.18963178  0.06561358    -1.14000
O497        O  0.74572533  0.11299267  0.07971760    -0.76400
O498        O  0.72296965  0.13968923  0.12761111    -0.79900
O499        O  0.71047034  0.26730302  0.06009761    -0.80600
C500        C  0.73426771  0.11195129  0.11177331     0.94600
O501        O  0.76552520  0.20532303  0.12923811    -0.78600
O502        O  0.73574372  0.13905115  0.00623921    -0.83800
C503        C  0.77967623  0.22096174  0.00091366     0.97300
C504        C  0.70782919  0.14944806  0.98924077     1.03200
O505        O  0.74739383  0.23218872  0.00134204    -0.79400
C506        C  0.79559056  0.19280219  0.11902819     1.01500
Fe507      Fe  0.30409302  0.88440710  0.21643258     1.65800
Fe508      Fe  0.34099494  0.94930410  0.26776065     1.73200
Fe509      Fe  0.27585924  0.96987871  0.20551807     1.54400
O510        O  0.28270841  0.94526895  0.15545071    -0.83100
O511        O  0.30262017  0.97854902  0.29411972    -0.81500
O512        O  0.31580911  0.89582566  0.16376498    -0.85700
O513        O  0.25032254  0.88549469  0.20555774    -0.80500
O514        O  0.31869642  0.00355272  0.19463341    -0.82300
O515        O  0.32706530  0.90621434  0.30100626    -0.85000
C516        C  0.22460712  0.90722778  0.20959699     0.95700
C517        C  0.29984420  0.91812720  0.14335062     1.03200
O518        O  0.30727106  0.93487373  0.22977422    -1.14000
O519        O  0.38411308  0.92112561  0.24681900    -0.76400
O520        O  0.35711954  0.87271401  0.22573398    -0.79900
O521        O  0.22932425  0.94053391  0.21434472    -0.80600
C522        C  0.38503081  0.88885152  0.23614408     0.94600
O523        O  0.29124580  0.87115751  0.26819853    -0.78600
O524        O  0.35770520  0.99463606  0.23940999    -0.83800
C525        C  0.27592798  0.99736724  0.28455228     0.97300
C526        C  0.34691356  0.01208728  0.21193041     1.03200
O527        O  0.26443144  0.99795393  0.25238944    -0.79400
C528        C  0.30469008  0.88054162  0.29806143     1.01500
C529        C  0.36751166  0.10088332  0.16628936    -0.14800
C530        C  0.39447363  0.11500902  0.18855497     0.07300
C531        C  0.40916536  0.09280734  0.21542488    -0.14800
C532        C  0.39528959  0.05837240  0.22163816    -0.14800
C533        C  0.36653977  0.04522079  0.20097125     0.07300
C534        C  0.35383151  0.06642043  0.17231528    -0.14800
H535        H  0.35570515  0.11715390  0.14522900     0.11300
H536        H  0.42979938  0.10287597  0.23321261     0.11300
H537        H  0.40583185  0.04286168  0.24389542     0.11300
H538        H  0.33190349  0.05720638  0.15564867     0.11300
C539        C  0.55244489  0.18252569  0.13312254    -0.14800
C540        C  0.53108453  0.21064498  0.11953734     0.07300
C541        C  0.54413075  0.23069716  0.09026622    -0.14800
C542        C  0.57867737  0.22441114  0.07667042    -0.14800
C543        C  0.60100255  0.19810054  0.09219737     0.07300
C544        C  0.58697388  0.17643328  0.11973092    -0.14800
H545        H  0.54333468  0.16640608  0.15555240     0.11300
H546        H  0.52845740  0.25254286  0.07909955     0.11300
H547        H  0.58868191  0.24170007  0.05552838     0.11300
H548        H  0.60334677  0.15584059  0.13221505     0.11300
C549        C  0.66207085  0.12826346  0.90086956    -0.14800
C550        C  0.68517801  0.10212962  0.88641310     0.07300
C551        C  0.71238132  0.08781211  0.90841111    -0.14800
C552        C  0.71821147  0.10143449  0.94294023    -0.14800
C553        C  0.69682799  0.12956064  0.95638604     0.07300
C554        C  0.66771207  0.14169210  0.93548780    -0.14800
H555        H  0.64069086  0.13967071  0.88473800     0.11300
H556        H  0.73076293  0.06777072  0.89808855     0.11300
H557        H  0.74082219  0.09133109  0.95822489     0.11300
H558        H  0.65048079  0.16310393  0.94499563     0.11300
C559        C  0.26965596  0.92253747  0.08344729    -0.14800
C560        C  0.29857576  0.91018511  0.10440192     0.07300
C561        C  0.32283829  0.88558081  0.08925228    -0.14800
C562        C  0.31684215  0.87161103  0.05497990    -0.14800
C563        C  0.28621544  0.88163598  0.03517283     0.07300
C564        C  0.26346492  0.90832666  0.04923929    -0.14800
H565        H  0.25033213  0.94129652  0.09444269     0.11300
H566        H  0.34548032  0.87568863  0.10464522     0.11300
H567        H  0.33514827  0.85137059  0.04492467     0.11300
H568        H  0.23967712  0.91675111  0.03475169     0.11300
C569        C  0.57195226  0.92076123  0.77688690    -0.14800
C570        C  0.58815266  0.89753903  0.80199379     0.07300
C571        C  0.61610538  0.91086160  0.82347385    -0.14800
C572        C  0.62944626  0.94546787  0.81808435    -0.14800
C573        C  0.61544804  0.96763886  0.79080124     0.07300
C574        C  0.58556245  0.95541243  0.77123473    -0.14800
H575        H  0.55037496  0.91135429  0.75987234     0.11300
H576        H  0.62902883  0.89384858  0.84325762     0.11300
H577        H  0.65230240  0.95392233  0.83389252     0.11300
H578        H  0.57399103  0.97178314  0.75013121     0.11300
C579        C  0.43312785  0.82983211  0.86072229    -0.14800
C580        C  0.45427830  0.80071288  0.87239817     0.07300
C581        C  0.44145294  0.77948800  0.90095865    -0.14800
C582        C  0.40716500  0.78548712  0.91542107    -0.14800
C583        C  0.38486535  0.81270499  0.90150822     0.07300
C584        C  0.39885891  0.83565708  0.87498404    -0.14800
H585        H  0.44212675  0.84696872  0.83901269     0.11300
H586        H  0.45700548  0.75691722  0.91076377     0.11300
H587        H  0.39723176  0.76724551  0.93578044     0.11300
H588        H  0.38255659  0.85704618  0.86381771     0.11300
C589        C  0.34295619  0.28120973  0.01195037    -0.14800
C590        C  0.30654384  0.27104473  0.01303703     0.07300
C591        C  0.29530331  0.24721868  0.04002191    -0.14800
C592        C  0.31895820  0.23675354  0.06726673    -0.14800
C593        C  0.35439614  0.24990866  0.06819790     0.07300
C594        C  0.36663944  0.27073649  0.03923262    -0.14800
H595        H  0.35272518  0.29905919  0.99116932     0.11300
H596        H  0.26763672  0.23843295  0.04143003     0.11300
H597        H  0.30868503  0.22029082  0.08893545     0.11300
H598        H  0.39375982  0.28116334  0.03895613     0.11300
C599        C  0.15554231  0.83818431  0.22652999    -0.14800
C600        C  0.13586391  0.83955192  0.19442231     0.07300
C601        C  0.14017776  0.86920085  0.17138253    -0.14800
C602        C  0.16674523  0.89490157  0.17853407    -0.14800
C603        C  0.18866249  0.89131387  0.20899506     0.07300
C604        C  0.18164232  0.86383808  0.23373135    -0.14800
H605        H  0.15238876  0.81591804  0.24501052     0.11300
H606        H  0.12529012  0.87082025  0.14645876     0.11300
H607        H  0.17240380  0.91543083  0.15870482     0.11300
H608        H  0.19865200  0.86034693  0.25707982     0.11300
C609        C  0.16415113  0.73560453  0.06795345    -0.14800
C610        C  0.12897957  0.74966114  0.06922838     0.07300
C611        C  0.11760004  0.77228704  0.04124109    -0.14800
C612        C  0.14170519  0.78308491  0.01448786    -0.14800
C613        C  0.17779716  0.77155289  0.01507310     0.07300
C614        C  0.18828400  0.74648131  0.04126073    -0.14800
H615        H  0.17384708  0.71791563  0.08894255     0.11300
H616        H  0.09080113  0.78363699  0.04130683     0.11300
H617        H  0.13247227  0.80206824  0.99444477     0.11300
H618        H  0.21566982  0.73669712  0.04231439     0.11300
C619        C  0.16078557  0.38377781  0.08879948    -0.14800
C620        C  0.18359096  0.40995984  0.10339576     0.07300
C621        C  0.21114536  0.42404414  0.08174730    -0.14800
C622        C  0.21778089  0.40984509  0.04755124    -0.14800
C623        C  0.19681380  0.38146186  0.03420311     0.07300
C624        C  0.16720252  0.36982260  0.05458591    -0.14800
H625        H  0.13912191  0.37258611  0.10464219     0.11300
H626        H  0.22925514  0.44416948  0.09221510     0.11300
H627        H  0.24063364  0.41967804  0.03251472     0.11300
H628        H  0.15017560  0.34832666  0.04508079     0.11300
C629        C  0.12446988  0.56340432  0.17067357    -0.14800
C630        C  0.11187671  0.54241057  0.19949496     0.07300
C631        C  0.08300179  0.55557160  0.22002925    -0.14800
C632        C  0.06941154  0.59019987  0.21398919    -0.14800
C633        C  0.08459135  0.61244664  0.18747019     0.07300
C634        C  0.11111779  0.59802527  0.16485268    -0.14800
H635        H  0.14635309  0.55406268  0.15395486     0.11300
H636        H  0.07245305  0.54010065  0.24228128     0.11300
H637        H  0.04891231  0.60046731  0.23187781     0.11300
H638        H  0.12310032  0.61427776  0.14391441     0.11300
C639        C  0.30510905  0.36961763  0.23343124    -0.14800
C640        C  0.29439147  0.39401356  0.20683932     0.07300
C641        C  0.31294703  0.39501098  0.17404929    -0.14800
C642        C  0.33978082  0.36956680  0.16682104    -0.14800
C643        C  0.34773119  0.34271894  0.19217483     0.07300
C644        C  0.33155648  0.34414630  0.22618904    -0.14800
H645        H  0.29060048  0.36807148  0.25860721     0.11300
H646        H  0.30430724  0.41303487  0.15286846     0.11300
H647        H  0.35185118  0.36886085  0.14037744     0.11300
H648        H  0.33755293  0.32395710  0.24630586     0.11300
C649        C  0.90506758  0.72258929  0.07641474    -0.14800
C650        C  0.88191190  0.69765257  0.09283209     0.07300
C651        C  0.89498033  0.67700308  0.12160776    -0.14800
C652        C  0.92936553  0.68294205  0.13532001    -0.14800
C653        C  0.95151013  0.70990768  0.12080874     0.07300
C654        C  0.93945633  0.72875435  0.09034113    -0.14800
H655        H  0.89582901  0.73902058  0.05423470     0.11300
H656        H  0.87796969  0.65743319  0.13475235     0.11300
H657        H  0.93773666  0.66770045  0.15865874     0.11300
H658        H  0.95578230  0.74963212  0.07841757     0.11300
C659        C  0.66815958  0.77286987  0.91843628    -0.14800
C660        C  0.63227903  0.76096568  0.91802959     0.07300
C661        C  0.61976422  0.74027717  0.94696023    -0.14800
C662        C  0.64337833  0.72896860  0.97388409    -0.14800
C663        C  0.67998696  0.73824581  0.97257084     0.07300
C664        C  0.69175517  0.76165470  0.94543884    -0.14800
H665        H  0.67865334  0.78906605  0.89667231     0.11300
H666        H  0.59233142  0.73070812  0.94755390     0.11300
H667        H  0.63326331  0.71143804  0.99477222     0.11300
H668        H  0.71965382  0.76964800  0.94384603     0.11300
C669        C  0.04398404  0.27989290  0.90132929    -0.14800
C670        C  0.03077478  0.30012215  0.87223709     0.07300
C671        C  0.05144223  0.32906794  0.85950991    -0.14800
C672        C  0.08574245  0.33554919  0.87326301    -0.14800
C673        C  0.10016404  0.31342998  0.90027455     0.07300
C674        C  0.07827359  0.28654500  0.91526474    -0.14800
H675        H  0.02877619  0.25751692  0.91193777     0.11300
H676        H  0.04206753  0.34547490  0.83737015     0.11300
H677        H  0.10173580  0.35667595  0.86131159     0.11300
H678        H  0.08853557  0.26898038  0.93608893     0.11300
C679        C  0.83462044  0.16380132  0.76325777    -0.14800
C680        C  0.85062949  0.16596487  0.79729836     0.07300
C681        C  0.84292302  0.13950936  0.82309506    -0.14800
C682        C  0.81625818  0.11392735  0.81633432    -0.14800
C683        C  0.79770238  0.11433010  0.78356031     0.07300
C684        C  0.80837216  0.13812844  0.75645059    -0.14800
H685        H  0.84047098  0.18365688  0.74279620     0.11300
H686        H  0.85491188  0.14073026  0.84955057     0.11300
H687        H  0.80765927  0.09634466  0.83786787     0.11300
H688        H  0.79384937  0.13920594  0.73125938     0.11300
C689        C  0.86589920  0.23747178  0.94936722    -0.14800
C690        C  0.85353658  0.25819659  0.92034061     0.07300
C691        C  0.81787411  0.27088434  0.92096156    -0.14800
C692        C  0.79436956  0.26070211  0.94842514    -0.14800
C693        C  0.80593931  0.23749140  0.97585383     0.07300
C694        C  0.84234781  0.22717090  0.97677114    -0.14800
H695        H  0.89312683  0.22720234  0.94974921     0.11300
H696        H  0.80746395  0.28704738  0.89910117     0.11300
H697        H  0.76661860  0.26933926  0.94698027     0.11300
H698        H  0.85229699  0.20960105  0.99774162     0.11300
C699        C  0.82464523  0.62658852  0.90075123    -0.14800
C700        C  0.80250818  0.59950513  0.88675358     0.07300
C701        C  0.77639554  0.58409209  0.90927790    -0.14800
C702        C  0.77018327  0.59796481  0.94367798    -0.14800
C703        C  0.79011371  0.62738606  0.95634564     0.07300
C704        C  0.81862807  0.64025623  0.93515729    -0.14800
H705        H  0.84529893  0.63877248  0.88430571     0.11300
H706        H  0.75894090  0.56310875  0.89940454     0.11300
H707        H  0.74823539  0.58713227  0.95936205     0.11300
H708        H  0.83485225  0.66259313  0.94411180     0.11300
C709        C  0.85357903  0.44196781  0.81793713    -0.14800
C710        C  0.86849738  0.46426688  0.79129762     0.07300
C711        C  0.89897419  0.45199858  0.77260486    -0.14800
C712        C  0.91237572  0.41726041  0.77842993    -0.14800
C713        C  0.89542299  0.39394546  0.80286906     0.07300
C714        C  0.86676323  0.40724281  0.82353107    -0.14800
H715        H  0.83024944  0.45047611  0.83307492     0.11300
H716        H  0.91127729  0.46845813  0.75203069     0.11300
H717        H  0.93451727  0.40791012  0.76205849     0.11300
H718        H  0.85324117  0.39015924  0.84279682     0.11300
C719        C  0.68244928  0.64421494  0.75546205    -0.14800
C720        C  0.69086603  0.61863533  0.78178749     0.07300
C721        C  0.67024072  0.61700335  0.81326049    -0.14800
C722        C  0.64354944  0.64283082  0.81963777    -0.14800
C723        C  0.63773509  0.67070638  0.79476948     0.07300
C724        C  0.65610802  0.67002095  0.76185750    -0.14800
H725        H  0.69850471  0.64619429  0.73128382     0.11300
H726        H  0.67702590  0.59799799  0.83425177     0.11300
H727        H  0.62974674  0.64280769  0.84522794     0.11300
H728        H  0.65180760  0.69089738  0.74201514     0.11300
C729        C  0.15495965  0.73481237  0.33552385    -0.14800
C730        C  0.15602892  0.70112650  0.35245036     0.07300
C731        C  0.12883615  0.67606376  0.34524537    -0.14800
C732        C  0.10333682  0.68320047  0.31846727    -0.14800
C733        C  0.10467802  0.71557812  0.29919949     0.07300
C734        C  0.12951489  0.74193460  0.30906427    -0.14800
H735        H  0.17538913  0.75472611  0.34096450     0.11300
H736        H  0.12924324  0.64987188  0.35791088     0.11300
H737        H  0.08489655  0.66222673  0.31051331     0.11300
H738        H  0.13124166  0.76682258  0.29405778     0.11300
C739        C  0.21977486  0.55015505  0.37022640    -0.14800
C740        C  0.24416530  0.57665179  0.35909075     0.07300
C741        C  0.25887513  0.57424194  0.32433699    -0.14800
C742        C  0.24748028  0.54766977  0.30042835    -0.14800
C743        C  0.22097810  0.52288088  0.31061321     0.07300
C744        C  0.20826454  0.52363306  0.34625693    -0.14800
H745        H  0.20770887  0.55131246  0.39665265     0.11300
H746        H  0.27779594  0.59416412  0.31486844     0.11300
H747        H  0.25812302  0.54774149  0.27337657     0.11300
H748        H  0.18806880  0.50476052  0.35521182     0.11300
C749        C  0.25403029  0.81500260  0.35530988    -0.14800
C750        C  0.27965756  0.80633265  0.38142007     0.07300
C751        C  0.31112335  0.82682945  0.38402889    -0.14800
C752        C  0.31829761  0.85360210  0.35848926    -0.14800
C753        C  0.29419749  0.85956403  0.33002443     0.07300
C754        C  0.26117220  0.84143845  0.32988706    -0.14800
H755        H  0.22984010  0.79911022  0.35266226     0.11300
H756        H  0.33153224  0.81988755  0.40358256     0.11300
H757        H  0.34390281  0.86730642  0.35919380     0.11300
H758        H  0.24185724  0.84595121  0.30860978     0.11300
C759        C  0.43143172  0.68047272  0.35730954    -0.14800
C760        C  0.45259217  0.70893243  0.37021561     0.07300
C761        C  0.43954521  0.72910408  0.39936271    -0.14800
C762        C  0.40520898  0.72265085  0.41344617    -0.14800
C763        C  0.38300359  0.69602199  0.39858019     0.07300
C764        C  0.39708363  0.67419168  0.37121209    -0.14800
H765        H  0.44054471  0.66420399  0.33503331     0.11300
H766        H  0.45502970  0.75119641  0.41005392     0.11300
H767        H  0.39521293  0.74009505  0.43442055     0.11300
H768        H  0.38084050  0.65334061  0.35921599     0.11300
C769        C  0.62555396  0.74441850  0.17766363    -0.14800
C770        C  0.60242955  0.71699577  0.18892275     0.07300
C771        C  0.60273981  0.68401373  0.17080672    -0.14800
C772        C  0.62815464  0.67753419  0.14380641    -0.14800
C773        C  0.65378276  0.70382774  0.13524603     0.07300
C774        C  0.65105075  0.73790146  0.15103738    -0.14800
H775        H  0.62615122  0.76977336  0.19184657     0.11300
H776        H  0.58577378  0.66222101  0.17987677     0.11300
H777        H  0.62991985  0.65098776  0.13214101     0.11300
H778        H  0.67035047  0.75867693  0.14465709     0.11300
C779        C  0.47367060  0.85549180  0.27196017    -0.14800
C780        C  0.47298029  0.81933373  0.26100855     0.07300
C781        C  0.44674995  0.80852608  0.23625865    -0.14800
C782        C  0.41984974  0.83240311  0.22540860    -0.14800
C783        C  0.41861286  0.86762101  0.23903703     0.07300
C784        C  0.44679152  0.87940594  0.26104086    -0.14800
H785        H  0.49387502  0.86489441  0.29058630     0.11300
H786        H  0.44566929  0.78104032  0.22694193     0.11300
H787        H  0.39868801  0.82251515  0.20814057     0.11300
H788        H  0.44668443  0.90631053  0.27197738     0.11300
C789        C  0.51080709  0.15707316  0.72026651    -0.14800
C790        C  0.51303062  0.19410217  0.72741281     0.07300
C791        C  0.54210701  0.20674169  0.74773564    -0.14800
C792        C  0.56964734  0.18343433  0.75826251    -0.14800
C793        C  0.56879381  0.14683773  0.74882451     0.07300
C794        C  0.53834451  0.13367546  0.73093734    -0.14800
H795        H  0.48855144  0.14639262  0.70496675     0.11300
H796        H  0.54468456  0.23504072  0.75376088     0.11300
H797        H  0.59261205  0.19459828  0.77210158     0.11300
H798        H  0.53675206  0.10570991  0.72327188     0.11300
C799        C  0.37833754  0.32728412  0.81492184    -0.14800
C800        C  0.37789584  0.29511564  0.79543922     0.07300
C801        C  0.35307159  0.26839429  0.80458380    -0.14800
C802        C  0.32712068  0.27477789  0.83081837    -0.14800
C803        C  0.32563038  0.30802879  0.84842646     0.07300
C804        C  0.35249915  0.33359817  0.84155964    -0.14800
H805        H  0.39656146  0.34864638  0.80741557     0.11300
H806        H  0.35186925  0.24374054  0.78927481     0.11300
H807        H  0.30691654  0.25450891  0.83584349     0.11300
H808        H  0.35175870  0.35952158  0.85463489     0.11300
C809        C  0.35758689  0.44834422  0.67031460    -0.14800
C810        C  0.36901167  0.46794070  0.70047559     0.07300
C811        C  0.39690378  0.45378815  0.72170132    -0.14800
C812        C  0.41092717  0.41963815  0.71464967    -0.14800
C813        C  0.39722605  0.39880310  0.68635329     0.07300
C814        C  0.37142746  0.41412024  0.66342684    -0.14800
H815        H  0.33640368  0.45852053  0.65314760     0.11300
H816        H  0.40644114  0.46812424  0.74507355     0.11300
H817        H  0.43071672  0.40860652  0.73292435     0.11300
H818        H  0.36050292  0.39888570  0.64125862     0.11300
C819        C  0.27577666  0.58616634  0.58343855    -0.14800
C820        C  0.30036597  0.60316137  0.60647038     0.07300
C821        C  0.32103124  0.63162297  0.59286645    -0.14800
C822        C  0.31521548  0.64464429  0.55811720    -0.14800
C823        C  0.28833761  0.62975662  0.53616462     0.07300
C824        C  0.26971727  0.59941234  0.54871474    -0.14800
H825        H  0.25942195  0.56414241  0.59302316     0.11300
H826        H  0.34042140  0.64513674  0.60973665     0.11300
H827        H  0.33033405  0.66785533  0.54934427     0.11300
H828        H  0.24900446  0.58711428  0.53250592     0.11300
C829        C  0.27092446  0.48685290  0.84734034    -0.14800
C830        C  0.25945582  0.48706628  0.81128754     0.07300
C831        C  0.23429946  0.46132066  0.80029025    -0.14800
C832        C  0.22341465  0.43413271  0.82380568    -0.14800
C833        C  0.23736184  0.43208809  0.85890049     0.07300
C834        C  0.25995200  0.45969274  0.87090380    -0.14800
H835        H  0.28993574  0.50658773  0.85691141     0.11300
H836        H  0.22459715  0.46087846  0.77289398     0.11300
H837        H  0.20572733  0.41343694  0.81373228     0.11300
H838        H  0.27119127  0.45896256  0.89770668     0.11300
C839        C  0.32159475  0.65585736  0.86076494    -0.14800
C840        C  0.29544972  0.64879697  0.83451658     0.07300
C841        C  0.26160871  0.66521657  0.83722780    -0.14800
C842        C  0.25519881  0.69096848  0.86351667    -0.14800
C843        C  0.28256048  0.70085200  0.88728466     0.07300
C844        C  0.31528223  0.68212721  0.88687252    -0.14800
H845        H  0.34792904  0.64356829  0.85908745     0.11300
H846        H  0.24092381  0.65991153  0.81749902     0.11300
H847        H  0.23009275  0.70573371  0.86300734     0.11300
H848        H  0.33703838  0.69020935  0.90436425     0.11300
C849        C  0.47364877  0.65583150  0.77396604    -0.14800
C850        C  0.47308598  0.69197013  0.76271404     0.07300
C851        C  0.44632408  0.70301763  0.73851977    -0.14800
C852        C  0.41903939  0.67939608  0.72834201    -0.14800
C853        C  0.41790336  0.64415018  0.74206479     0.07300
C854        C  0.44639253  0.63217676  0.76371345    -0.14800
H855        H  0.49412421  0.64622744  0.79228062     0.11300
H856        H  0.44524201  0.73049030  0.72902811     0.11300
H857        H  0.39763410  0.68945958  0.71137868     0.11300
H858        H  0.44636813  0.60527337  0.77477633     0.11300
C859        C  0.58727558  0.55763227  0.27050306    -0.14800
C860        C  0.61635257  0.54472484  0.29092649     0.07300
C861        C  0.62950919  0.56617649  0.31905623    -0.14800
C862        C  0.61615858  0.60084919  0.32448732    -0.14800
C863        C  0.58904784  0.61478642  0.30220320     0.07300
C864        C  0.57368234  0.59223701  0.27617702    -0.14800
H865        H  0.57635960  0.54184512  0.24872984     0.11300
H866        H  0.65169686  0.55709041  0.33554787     0.11300
H867        H  0.62837447  0.61740578  0.34496727     0.11300
H868        H  0.55279730  0.60215364  0.25849744     0.11300
C869        C  0.72386581  0.34130633  0.16203532    -0.14800
C870        C  0.69109721  0.36001720  0.16205434     0.07300
C871        C  0.66692951  0.35483670  0.13352196    -0.14800
C872        C  0.67389663  0.32859710  0.10747469    -0.14800
C873        C  0.70530427  0.30782519  0.10949764     0.07300
C874        C  0.73087696  0.31549203  0.13597393    -0.14800
H875        H  0.74315613  0.34504917  0.18345987     0.11300
H876        H  0.64143361  0.36887161  0.13301649     0.11300
H877        H  0.65337026  0.32227799  0.08789560     0.11300
H878        H  0.75489944  0.29920256  0.13838136     0.11300
C879        C  0.53786423  0.30847152  0.25168192    -0.14800
C880        C  0.51137039  0.31988828  0.22734395     0.07300
C881        C  0.51118584  0.35612399  0.21639809    -0.14800
C882        C  0.53830338  0.37962812  0.22743752    -0.14800
C883        C  0.56635456  0.36742199  0.24954985     0.07300
C884        C  0.56504206  0.33192201  0.26259848    -0.14800
H885        H  0.53876968  0.28087432  0.26082069     0.11300
H886        H  0.49099773  0.36598309  0.19790054     0.11300
H887        H  0.53851075  0.40668672  0.21676682     0.11300
H888        H  0.58616498  0.32159311  0.27975486     0.11300
C889        C  0.71245218  0.52481068  0.14482494    -0.14800
C890        C  0.72310746  0.52555847  0.18111577     0.07300
C891        C  0.74641359  0.55286349  0.19242193    -0.14800
C892        C  0.75672288  0.58012311  0.16873478    -0.14800
C893        C  0.74405955  0.58074592  0.13310245     0.07300
C894        C  0.72287048  0.55205420  0.12107274    -0.14800
H895        H  0.69468244  0.50402805  0.13509340     0.11300
H896        H  0.75525008  0.55425299  0.22007610     0.11300
H897        H  0.77315428  0.60176517  0.17894117     0.11300
H898        H  0.71249789  0.55175989  0.09391913     0.11300
C899        C  0.71869947  0.41177207  0.44335656    -0.14800
C900        C  0.69849986  0.38276986  0.45664555     0.07300
C901        C  0.66953823  0.37009569  0.43602512    -0.14800
C902        C  0.66299237  0.38378558  0.40170284    -0.14800
C903        C  0.68506412  0.41068133  0.38719726     0.07300
C904        C  0.71197580  0.42565778  0.40901453    -0.14800
H905        H  0.74107530  0.42234521  0.45855310     0.11300
H906        H  0.65315188  0.34803341  0.44546204     0.11300
H907        H  0.64184032  0.37186516  0.38576729     0.11300
H908        H  0.72948399  0.44642024  0.39867318     0.11300
C909        C  0.58035557  0.28893440  0.57553459    -0.14800
C910        C  0.60317443  0.31424105  0.59175236     0.07300
C911        C  0.58941485  0.33536679  0.61980289    -0.14800
C912        C  0.55476192  0.32953284  0.63307648    -0.14800
C913        C  0.53296264  0.30216355  0.61890741     0.07300
C914        C  0.54570572  0.28284663  0.58906072    -0.14800
H915        H  0.59006797  0.27213649  0.55391096     0.11300
H916        H  0.60610124  0.35525049  0.63279513     0.11300
H917        H  0.54592283  0.34515709  0.65591599     0.11300
H918        H  0.52967854  0.26168649  0.57733586     0.13700
C919        C  0.67627173  0.18199507  0.60548788    -0.14800
C920        C  0.70775077  0.20247777  0.60772480     0.07300
C921        C  0.73364350  0.19380595  0.63361781    -0.14800
C922        C  0.72664191  0.16761188  0.65935757    -0.14800
C923        C  0.69355703  0.14961543  0.65962305     0.07300
C924        C  0.66927349  0.15542786  0.63126908    -0.14800
H925        H  0.65564626  0.18892090  0.58615696     0.11300
H926        H  0.75786378  0.20968573  0.63598414     0.11300
H927        H  0.74608537  0.16324342  0.68056328     0.11300
H928        H  0.64360232  0.14183398  0.63087517     0.11300
C929        C  0.85987941  0.32937073  0.64338814    -0.14800
C930        C  0.83107344  0.30578761  0.63750937     0.07300
C931        C  0.83075153  0.27244068  0.65509853    -0.14800
C932        C  0.85618491  0.26461527  0.68131761    -0.14800
C933        C  0.88233599  0.28997879  0.69036714     0.07300
C934        C  0.88538337  0.32155308  0.66999359    -0.14800
H935        H  0.86072950  0.35518082  0.62999045     0.11300
H936        H  0.80919759  0.25352348  0.65053051     0.11300
H937        H  0.85324332  0.24029628  0.69705839     0.11300
H938        H  0.90500359  0.34172285  0.67716474     0.11300
C939        C  0.76287878  0.45994257  0.62084043    -0.14800
C940        C  0.73999267  0.43231109  0.63231308     0.07300
C941        C  0.72522485  0.43418025  0.66708002    -0.14800
C942        C  0.73567171  0.46118982  0.69088276    -0.14800
C943        C  0.76117827  0.48688123  0.68046323     0.07300
C944        C  0.77339558  0.48689513  0.64466447    -0.14800
H945        H  0.77473422  0.45936102  0.59429974     0.11300
H946        H  0.70728037  0.41345179  0.67671860     0.11300
H947        H  0.72541478  0.46059989  0.71807919     0.11300
H948        H  0.79269468  0.50660471  0.63553114     0.11300
C949        C  0.83025447  0.34152893  0.26585725    -0.14800
C950        C  0.84739995  0.34018417  0.29940012     0.07300
C951        C  0.84087000  0.36770453  0.32434745    -0.14800
C952        C  0.81472277  0.39395310  0.31717253    -0.14800
C953        C  0.79550019  0.39324837  0.28475732     0.07300
C954        C  0.80462216  0.36787172  0.25859101    -0.14800
H955        H  0.83507263  0.32084574  0.24603174     0.11300
H956        H  0.85365991  0.36714172  0.35045188     0.11300
H957        H  0.80721992  0.41263048  0.33813263     0.11300
H958        H  0.78948711  0.36639007  0.23379521     0.11300
C959        C  0.86881459  0.27012074  0.45146291    -0.14800
C960        C  0.85654177  0.24835966  0.42331870     0.07300
C961        C  0.82112068  0.23523348  0.42470741    -0.14800
C962        C  0.79743492  0.24666699  0.45142797    -0.14800
C963        C  0.80865969  0.27141246  0.47741600     0.07300
C964        C  0.84508088  0.28157906  0.47823241    -0.14800
H965        H  0.89593163  0.28056376  0.45133029     0.11300
H966        H  0.81085435  0.21808156  0.40365806     0.11300
H967        H  0.76975888  0.23787605  0.45031413     0.11300
H968        H  0.85481449  0.30008844  0.49835927     0.11300
C969        C  0.03702209  0.30547166  0.23733438    -0.14800
C970        C  0.00997455  0.31701996  0.26094408     0.07300
C971        C  0.00840802  0.35362656  0.27015357    -0.14800
C972        C  0.03522242  0.37734815  0.25889890    -0.14800
C973        C  0.06427496  0.36497051  0.23827949     0.07300
C974        C  0.06388224  0.32918288  0.22612838    -0.14800
H975        H  0.03877995  0.27760726  0.22930776     0.11300
H976        H  0.98754446  0.36361625  0.28777541     0.11300
H977        H  0.03451865  0.40472518  0.26857277     0.11300
H978        H  0.08567429  0.31876839  0.20992622     0.11300
C979        C  0.85277220  0.24323614  0.18451677    -0.14800
C980        C  0.87894982  0.21754660  0.19301368     0.07300
C981        C  0.88163659  0.18624097  0.17231230    -0.14800
C982        C  0.85610577  0.17923563  0.14556724    -0.14800
C983        C  0.82756803  0.20334286  0.13981777     0.07300
C984        C  0.82731546  0.23623338  0.15812902    -0.14800
H985        H  0.85001767  0.26728651  0.20060117     0.11300
H986        H  0.90116773  0.16574839  0.17915160     0.11300
H987        H  0.85683221  0.15369695  0.13176209     0.11300
H988        H  0.80591385  0.25549799  0.15382049     0.11300
C989        C  0.30247798  0.14800404  0.73288596    -0.14800
C990        C  0.29460568  0.12089190  0.70811696     0.07300
C991        C  0.31505824  0.11825410  0.67656027    -0.14800
C992        C  0.34133255  0.14410715  0.66876306    -0.14800
C993        C  0.34687951  0.17308413  0.69222903     0.07300
C994        C  0.32832836  0.17384299  0.72504697    -0.14800
H995        H  0.28645479  0.15093283  0.75698957     0.11300
H996        H  0.30856632  0.09819249  0.65660295     0.11300
H997        H  0.35516499  0.14304818  0.64321208     0.11300
H998        H  0.33231003  0.19566938  0.74376981     0.11300
C999        C  0.17270695  0.18187848  0.88556071    -0.14800
C1000       C  0.20381948  0.20288413  0.88288677     0.07300
C1001       C  0.22908855  0.19536560  0.85608770    -0.14800
C1002       C  0.22188611  0.16960293  0.83014207    -0.14800
C1003       C  0.18929832  0.15077858  0.83064370     0.07300
C1004       C  0.16558580  0.15561489  0.85962966    -0.14800
H1005       H  0.15247922  0.18805013  0.90553036     0.11300
H1006       H  0.25290290  0.21180499  0.85328501     0.11300
H1007       H  0.24085054  0.16598785  0.80839007     0.11300
H1008       H  0.14029341  0.14134981  0.86055711     0.11300
C1009       C  0.06201974  0.17417969  0.72511069    -0.14800
C1010       C  0.06440838  0.13964877  0.74045462     0.07300
C1011       C  0.03739678  0.12853637  0.76424007    -0.14800
C1012       C  0.01082710  0.15266423  0.77530824    -0.14800
C1013       C  0.01067296  0.18838703  0.76277026     0.07300
C1014       C  0.03546216  0.19831385  0.73618621    -0.14800
H1015       H  0.08221849  0.18348893  0.70637542     0.11300
H1016       H  0.03837068  0.10216689  0.77649541     0.11300
H1017       H  0.99167288  0.14385266  0.79533041     0.11300
H1018       H  0.03575049  0.22537064  0.72551608     0.11300
C1019       C  0.24917549  0.95870658  0.79996333    -0.14800
C1020       C  0.22631408  0.98620311  0.81195579     0.07300
C1021       C  0.21623519  0.98668197  0.84840994    -0.14800
C1022       C  0.22651887  0.95881801  0.87157846    -0.14800
C1023       C  0.24694703  0.92979632  0.85873918     0.07300
C1024       C  0.25930071  0.93083581  0.82302721    -0.14800
H1025       H  0.25756582  0.95750930  0.77215665     0.11300
H1026       H  0.19887651  0.00765071  0.85864945     0.11300
H1027       H  0.21654755  0.95890342  0.89888664     0.11300
H1028       H  0.27521745  0.90902902  0.81221811     0.11300
C1029       C  0.38204403  0.18637695  0.31875988    -0.14800
C1030       C  0.37897876  0.21826885  0.29881414     0.07300
C1031       C  0.35231365  0.24324326  0.30786714    -0.14800
C1032       C  0.32678402  0.23499440  0.33389642    -0.14800
C1033       C  0.32746854  0.20158448  0.35138716     0.07300
C1034       C  0.35645405  0.17814383  0.34519386    -0.14800
H1035       H  0.40193078  0.16640276  0.31151025     0.11300
H1036       H  0.34923355  0.26773132  0.29240096     0.11300
H1037       H  0.30505535  0.25377614  0.33861260     0.11300
H1038       H  0.35753903  0.15224390  0.35840773     0.11300
C1039       C  0.26182131  0.04826262  0.37117873    -0.14800
C1040       C  0.23735995  0.07487045  0.36034219     0.07300
C1041       C  0.22121522  0.07204590  0.32629118    -0.14800
C1042       C  0.23194516  0.04529568  0.30230676    -0.14800
C1043       C  0.25904691  0.02084236  0.31189439     0.07300
C1044       C  0.27258760  0.02155415  0.34719402    -0.14800
H1045       H  0.27475788  0.04963504  0.39717448     0.11300
H1046       H  0.20200610  0.09197007  0.31723614     0.11300
H1047       H  0.22057504  0.04518016  0.27555463     0.11300
H1048       H  0.29314864  0.00277794  0.35570440     0.11300
C1049       C  0.29769189  0.26401631  0.53699239    -0.14800
C1050       C  0.30769184  0.23709666  0.51262726     0.07300
C1051       C  0.34343472  0.22451043  0.51319663    -0.14800
C1052       C  0.36754767  0.23612614  0.53951416    -0.14800
C1053       C  0.35649103  0.26055797  0.56595159     0.07300
C1054       C  0.32181330  0.27561515  0.56334044    -0.14800
H1055       H  0.27060297  0.27464692  0.53707078     0.11300
H1056       H  0.35232013  0.20412402  0.49450316     0.11300
H1057       H  0.39395787  0.22394677  0.54068227     0.11300
H1058       H  0.31244732  0.29471669  0.58312962     0.11300
C1059       C  0.07859005  0.22113441  0.41503715    -0.14800
C1060       C  0.10050781  0.19391884  0.40067133     0.07300
C1061       C  0.08612936  0.17156496  0.37394484    -0.14800
C1062       C  0.05185536  0.17807672  0.35989662    -0.14800
C1063       C  0.03117294  0.20732435  0.37198551     0.07300
C1064       C  0.04437877  0.22785784  0.40076417    -0.14800
H1065       H  0.08882976  0.23893910  0.43554616     0.11300
H1066       H  0.10216566  0.15020555  0.36243644     0.11300
H1067       H  0.04251550  0.16143243  0.33803009     0.11300
H1068       H  0.02916897  0.25045127  0.41094360     0.11300
C1069       C  0.21296282  0.08455458  0.58376782    -0.14800
C1070       C  0.18514934  0.09863990  0.60511684     0.07300
C1071       C  0.16192849  0.12431647  0.58998967    -0.14800
C1072       C  0.16818401  0.13782347  0.55550821    -0.14800
C1073       C  0.19798064  0.12617869  0.53537659     0.07300
C1074       C  0.21937231  0.09824138  0.54929627    -0.14800
H1075       H  0.23138310  0.06477415  0.59459958     0.11300
H1076       H  0.14004721  0.13548110  0.60556625     0.11300
H1077       H  0.15084302  0.15897547  0.54553409     0.11300
H1078       H  0.24242813  0.08845913  0.53451337     0.11300
C1079       C  0.22836398  0.31312643  0.35477665    -0.14800
C1080       C  0.20310369  0.30489592  0.38138916     0.07300
C1081       C  0.17178628  0.32577130  0.38423904    -0.14800
C1082       C  0.16447723  0.35261160  0.35869382    -0.14800
C1083       C  0.18830364  0.35828860  0.32992386     0.07300
C1084       C  0.22106113  0.33955582  0.32933871    -0.14800
H1085       H  0.25240339  0.29695537  0.35183349     0.11300
H1086       H  0.15158496  0.31915041  0.40408657     0.11300
H1087       H  0.13901551  0.36667812  0.35971299     0.11300
H1088       H  0.24012518  0.34372855  0.30776393     0.11300
C1089       C  0.14317135  0.64156000  0.66666634    -0.14800
C1090       C  0.13552722  0.66926886  0.69102959     0.07300
C1091       C  0.15128441  0.66848319  0.72524494    -0.14800
C1092       C  0.17721198  0.64285963  0.73362159    -0.14800
C1093       C  0.18779988  0.61758159  0.70794733     0.07300
C1094       C  0.16948461  0.61587461  0.67504509    -0.14800
H1095       H  0.13131757  0.64169156  0.64011897     0.11300
H1096       H  0.14538322  0.68926676  0.74465508     0.11300
H1097       H  0.19148904  0.64492917  0.75888442     0.11300
H1098       H  0.17801730  0.59709144  0.65457634     0.11300
C1099       C  0.18629527  0.76532661  0.53663273    -0.14800
C1100       C  0.17649475  0.73844168  0.51220092     0.07300
C1101       C  0.14075464  0.72603561  0.51241210    -0.14800
C1102       C  0.11655944  0.73744544  0.53876845    -0.14800
C1103       C  0.12761114  0.76141869  0.56556427     0.07300
C1104       C  0.16210243  0.77669489  0.56303461    -0.14800
H1105       H  0.21334182  0.77593765  0.53685247     0.11300
H1106       H  0.13200097  0.70581197  0.49352664     0.11300
H1107       H  0.09021411  0.72523321  0.53983185     0.11300
H1108       H  0.17133947  0.79558376  0.58304706     0.11300
C1109       C  0.11652746  0.91059423  0.66624851    -0.14800
C1110       C  0.08997980  0.89592534  0.68871352     0.07300
C1111       C  0.07621699  0.91713250  0.71673382    -0.14800
C1112       C  0.09053116  0.95114610  0.72370538    -0.14800
C1113       C  0.11881147  0.96480734  0.70269004     0.07300
C1114       C  0.13068809  0.94463217  0.67307969    -0.14800
H1115       H  0.12764947  0.89504044  0.64436385     0.11300
H1116       H  0.05596280  0.90656997  0.73472411     0.11300
H1117       H  0.08066971  0.96590209  0.74670747     0.11300
H1118       H  0.15224920  0.95432444  0.65615733     0.11300
C1119       C  0.97505135  0.65429935  0.71590943    -0.14800
C1120       C  0.97468485  0.69030923  0.72741320     0.07300
C1121       C  0.94893182  0.70085177  0.75284432    -0.14800
C1122       C  0.92231662  0.67687297  0.76405153    -0.14800
C1123       C  0.92084145  0.64177581  0.75012222     0.07300
C1124       C  0.94847440  0.63028557  0.72719239    -0.14800
H1125       H  0.99480662  0.64507671  0.69667143     0.11300
H1126       H  0.94803802  0.72821377  0.76254499     0.11300
H1127       H  0.90155223  0.68658945  0.78194610     0.11300
H1128       H  0.94815651  0.60353006  0.71590370     0.11300
C1129       C  0.13564053  0.76511081  0.80335957    -0.14800
C1130       C  0.10838577  0.79012001  0.79624956     0.07300
C1131       C  0.10507775  0.82054367  0.81813686    -0.14800
C1132       C  0.13069383  0.82728863  0.84490678    -0.14800
C1133       C  0.16001181  0.80384112  0.84962064     0.07300
C1134       C  0.16117210  0.77183114  0.82980496    -0.14800
H1135       H  0.13893035  0.74179038  0.78635719     0.11300
H1136       H  0.08475412  0.84059764  0.81240536     0.11300
H1137       H  0.12916757  0.85215579  0.85982457     0.11300
H1138       H  0.18313344  0.75300394  0.83317172     0.11300
C1139       C  0.85471390  0.06331785  0.31919486    -0.14800
C1140       C  0.86644396  0.04296534  0.28959354     0.07300
C1141       C  0.89408493  0.05691125  0.26795679    -0.14800
C1142       C  0.90791056  0.09125655  0.27433934    -0.14800
C1143       C  0.89423234  0.11259856  0.30232035     0.07300
C1144       C  0.86828283  0.09776755  0.32534530    -0.14800
H1145       H  0.83357558  0.05347602  0.33655882     0.11300
H1146       H  0.90376706  0.04209767  0.24491631     0.11300
H1147       H  0.92769705  0.10195019  0.25591035     0.11300
H1148       H  0.85725312  0.11343278  0.34719750     0.11300
C1149       C  0.81734847  0.85485003  0.12992928    -0.14800
C1150       C  0.79210752  0.86100833  0.15733495     0.07300
C1151       C  0.75843221  0.84426723  0.15537891    -0.14800
C1152       C  0.75153697  0.81893306  0.12883017    -0.14800
C1153       C  0.77822565  0.80972979  0.10394302     0.07300
C1154       C  0.81052390  0.82904365  0.10346033    -0.14800
H1155       H  0.84348793  0.86749948  0.13084041     0.11300
H1156       H  0.73829776  0.84895525  0.17584509     0.11300
H1157       H  0.72671456  0.80383804  0.12999003     0.11300
H1158       H  0.83178963  0.82161037  0.08505545     0.11300
C1159       C  0.94432132  0.87822842  0.22851467    -0.14800
C1160       C  0.91590676  0.86601364  0.25005861     0.07300
C1161       C  0.91752845  0.83085701  0.26396191    -0.14800
C1162       C  0.94526384  0.80751267  0.25400579    -0.14800
C1163       C  0.97186508  0.81874160  0.22974209     0.07300
C1164       C  0.97193148  0.85482587  0.21838033    -0.14800
H1165       H  0.94393805  0.90509100  0.21735715     0.11300
H1166       H  0.89618455  0.82064847  0.28086561     0.11300
H1167       H  0.94453377  0.78003659  0.26351215     0.11300
H1168       H  0.99228764  0.86453612  0.20003012     0.11300
C1169       C  0.73566884  0.05108864  0.19275452    -0.14800
C1170       C  0.75786649  0.02307848  0.18085507     0.07300
C1171       C  0.76673359  0.02131535  0.14412044    -0.14800
C1172       C  0.75636623  0.04874703  0.12052425    -0.14800
C1173       C  0.73692293  0.07844547  0.13322592     0.07300
C1174       C  0.72528600  0.07840128  0.16922737    -0.14800
H1175       H  0.72805952  0.05312933  0.22073694     0.11300
H1176       H  0.78337114  0.99974188  0.13394428     0.11300
H1177       H  0.76562917  0.04784158  0.09298508     0.11300
H1178       H  0.71001022  0.10070322  0.17994804     0.11300
C1179       C  0.66626461  0.89534549  0.31315975    -0.14800
C1180       C  0.68564234  0.89451981  0.28088272     0.07300
C1181       C  0.67583847  0.87019819  0.25401970    -0.14800
C1182       C  0.64982256  0.84427979  0.26079288    -0.14800
C1183       C  0.63317930  0.84240936  0.29455189     0.07300
C1184       C  0.63985629  0.86947185  0.31990040    -0.14800
H1185       H  0.67411823  0.91342463  0.33448152     0.11300
H1186       H  0.69093532  0.86889593  0.22917769     0.11300
H1187       H  0.64469579  0.82403547  0.24061059     0.11300
H1188       H  0.62727724  0.86856504  0.34610172     0.11300
C1189       C  0.89539504  0.83438806  0.62186103    -0.14800
C1190       C  0.88233247  0.81376774  0.59314531     0.07300
C1191       C  0.90587519  0.78961843  0.57612440    -0.14800
C1192       C  0.94054437  0.78387413  0.58960622    -0.14800
C1193       C  0.95252507  0.80234364  0.62025020     0.07300
C1194       C  0.93010075  0.82886187  0.63515005    -0.14800
H1195       H  0.87811705  0.85347798  0.63538083     0.11300
H1196       H  0.89673720  0.77333238  0.55390152     0.11300
H1197       H  0.95715439  0.76345624  0.57724980     0.11300
H1198       H  0.93844932  0.84383750  0.65857396     0.11300
C1199       C  0.76993138  0.91083218  0.44352315    -0.14800
C1200       C  0.78901756  0.88059701  0.45585007     0.07300
C1201       C  0.81561774  0.86569999  0.43350289    -0.14800
C1202       C  0.82059523  0.87850456  0.39856136    -0.14800
C1203       C  0.79935640  0.90675036  0.38518720     0.07300
C1204       C  0.77513178  0.92384151  0.40859854    -0.14800
H1205       H  0.74938415  0.92311379  0.46003138     0.11300
H1206       H  0.83105576  0.84256436  0.44210011     0.11300
H1207       H  0.83978045  0.86497658  0.38139576     0.11300
H1208       H  0.75840610  0.94574320  0.39920766     0.11300
C1209       C  0.65017501  0.77419008  0.65157872    -0.14800
C1210       C  0.65324240  0.80844192  0.63616010     0.07300
C1211       C  0.62753537  0.83481694  0.64442970    -0.14800
C1212       C  0.60168343  0.82821315  0.67096307    -0.14800
C1213       C  0.60104436  0.79502164  0.68883047     0.07300
C1214       C  0.62418835  0.76752613  0.67766182    -0.14800
H1215       H  0.66955476  0.75337331  0.64536340     0.11300
H1216       H  0.62958010  0.86148168  0.63297860     0.11300
H1217       H  0.58472972  0.85006037  0.68001672     0.11300
H1218       H  0.62456033  0.74202996  0.69172238     0.11300
C1219       C  0.75886785  0.93184227  0.66886527    -0.14800
C1220       C  0.74564559  0.93086647  0.63343296     0.07300
C1221       C  0.72398588  0.95936290  0.62142360    -0.14800
C1222       C  0.71328807  0.98646429  0.64513350    -0.14800
C1223       C  0.72409972  0.98577648  0.68138315     0.07300
C1224       C  0.74824910  0.95897595  0.69253860    -0.14800
H1225       H  0.77579463  0.91043269  0.67901282     0.11300
H1226       H  0.71328749  0.95948362  0.59439441     0.11300
H1227       H  0.69504307  0.00697766  0.63544031     0.11300
H1228       H  0.75741520  0.95778030  0.72010206     0.11300
C1229       C  0.81306215  0.68219979  0.60643217    -0.14800
C1230       C  0.78028052  0.70085278  0.60781330     0.07300
C1231       C  0.75430444  0.69063657  0.63302254    -0.14800
C1232       C  0.76220705  0.66465109  0.65877115    -0.14800
C1233       C  0.79624113  0.64840217  0.65975525     0.07300
C1234       C  0.82096128  0.65583108  0.63221972    -0.14800
H1235       H  0.83378920  0.69044408  0.58776641     0.11300
H1236       H  0.72912785  0.70517363  0.63487692     0.11300
H1237       H  0.74253854  0.65901353  0.67943892     0.11300
H1238       H  0.84740685  0.64367130  0.63251285     0.11300
C1239       C  0.64271623  0.78198411  0.47529898    -0.14800
C1240       C  0.67949834  0.77312285  0.47369112     0.07300
C1241       C  0.69160001  0.75142873  0.44538484    -0.14800
C1242       C  0.66810428  0.74108915  0.41800424    -0.14800
C1243       C  0.63183238  0.75202814  0.41827697     0.07300
C1244       C  0.61913121  0.77146905  0.44796712    -0.14800
H1245       H  0.63240669  0.79841406  0.49693322     0.11300
H1246       H  0.71967866  0.74409317  0.44327492     0.11300
H1247       H  0.67890087  0.72605412  0.39560455     0.11300
H1248       H  0.59146955  0.78043078  0.44905648     0.11300
loop_ 
_geom_bond_atom_site_label_1 
_geom_bond_atom_site_label_2 
_geom_bond_distance 
_geom_bond_site_symmetry_2 
_ccdc_geom_bond_type 
Fe1          O17   2.053       .  S
Fe1           O7   2.040       .  S
Fe1          O14   2.054       .  S
Fe1           O6   2.060       .  S
Fe1          O12   1.957       .  S
Fe2           O5   2.059       .  S
Fe2           O9   2.083       .  S
Fe2          O13   2.076       .  S
Fe2          O18   2.080       .  S
Fe2          O12   1.975       .  S
Fe3          O21   2.085       .  S
Fe3           O8   2.062       .  S
Fe3          O15   2.075       .  S
Fe3           O4   2.092       .  S
Fe3          O12   1.977       .  S
O4           C11   1.277       .  A
O5           C19   1.268       .  A
O6           C11   1.273       .  A
O7           C10   1.261       .  A
O8           C20   1.271       .  A
O9           C22   1.273       .  A
C10          O15   1.266       .  A
C10        C1230   1.465       .  S
C11        C1190   1.486       .  S
O13          C16   1.269       .  A
O14          C16   1.264       .  A
C16        C1220   1.487       .  S
O17          C22   1.270       .  A
O18          C20   1.274       .  A
C19          O21   1.274       .  A
C19        C1240   1.488       .  S
C20        C1200   1.487       .  S
C22        C1210   1.473       .  S
Fe23         O39   2.046       .  S
Fe23         O29   2.054       .  S
Fe23         O36   2.059       .  S
Fe23         O28   2.060       .  S
Fe23         O34   1.950       .  S
Fe24         O27   2.081       .  S
Fe24         O31   2.069       .  S
Fe24         O35   2.093       .  S
Fe24         O40   2.062   1_565  S
Fe24         O34   1.967       .  S
Fe25         O43   2.052       .  S
Fe25         O30   2.087       .  S
Fe25         O37   2.088       .  S
Fe25         O26   2.071       .  S
Fe25         O34   1.966       .  S
O26          C33   1.270       .  A
O27          C41   1.273       .  A
O28          C33   1.266       .  A
O29          C32   1.270       .  A
O30          C42   1.275   1_565  A
O31          C44   1.265       .  A
C32          O37   1.273       .  A
C32        C1150   1.477       .  S
C33        C1160   1.484       .  S
O35          C38   1.277       .  A
O36          C38   1.272       .  A
C38        C1203   1.485       .  S
O39          C44   1.263       .  A
O40          C42   1.271       .  A
C41          O43   1.267       .  A
C41        C1170   1.483   1_565  S
C42        C1140   1.490       .  S
C44        C1180   1.461       .  S
Fe45         O61   2.045       .  S
Fe45         O51   2.047       .  S
Fe45         O58   2.054       .  S
Fe45         O50   2.052       .  S
Fe45         O56   1.952       .  S
Fe46         O49   2.085   1_455  S
Fe46         O53   2.077       .  S
Fe46         O57   2.096       .  S
Fe46         O62   2.069   1_455  S
Fe46         O56   1.971       .  S
Fe47         O65   2.052       .  S
Fe47         O52   2.082       .  S
Fe47         O59   2.088       .  S
Fe47         O48   2.072       .  S
Fe47         O56   1.971       .  S
O48          C55   1.268       .  A
O49          C63   1.273       .  A
O50          C55   1.264       .  A
O51          C54   1.270       .  A
O52          C64   1.276   1_455  A
O53          C66   1.267       .  A
C54          O59   1.274       .  A
C54        C1090   1.473       .  S
C55        C1103   1.484       .  S
O57          C60   1.277       .  A
O58          C60   1.271       .  A
C60        C1110   1.485       .  S
O61          C66   1.263       .  A
O62          C64   1.274       .  A
C63          O65   1.266   1_655  A
C63        C1120   1.487       .  S
C64        C1193   1.488       .  S
C66        C1130   1.466       .  S
Fe67         O83   2.043       .  S
Fe67         O73   2.052       .  S
Fe67         O80   2.059       .  S
Fe67         O72   2.051       .  S
Fe67         O78   1.955       .  S
Fe68         O71   2.090       .  S
Fe68         O75   2.076       .  S
Fe68         O79   2.098       .  S
Fe68         O84   2.068       .  S
Fe68         O78   1.974       .  S
Fe69         O87   2.049       .  S
Fe69         O74   2.082       .  S
Fe69         O81   2.088       .  S
Fe69         O70   2.067       .  S
Fe69         O78   1.976       .  S
O70          C77   1.267       .  A
O71          C85   1.274       .  A
O72          C77   1.264       .  A
O73          C76   1.271       .  A
O74          C86   1.275       .  A
O75          C88   1.267       .  A
C76          O81   1.274       .  A
C76        C1033   1.477       .  S
C77        C1040   1.481       .  S
O79          C82   1.277       .  A
O80          C82   1.272       .  A
C82        C1060   1.488       .  S
O83          C88   1.262       .  A
O84          C86   1.273       .  A
C85          O87   1.266       .  A
C85        C1050   1.489       .  S
C86        C1073   1.489       .  S
C88        C1080   1.466       .  S
Fe89        O105   2.050       .  S
Fe89         O95   2.045       .  S
Fe89        O102   2.046       .  S
Fe89         O94   2.057       .  S
Fe89        O100   1.952       .  S
Fe90         O93   2.058       .  S
Fe90         O97   2.084       .  S
Fe90        O101   2.073       .  S
Fe90        O106   2.081       .  S
Fe90        O100   1.972       .  S
Fe91        O109   2.080       .  S
Fe91         O96   2.068       .  S
Fe91        O103   2.080       .  S
Fe91         O92   2.092       .  S
Fe91        O100   1.968       .  S
O92          C99   1.276       .  A
O93         C107   1.267       .  A
O94          C99   1.271       .  A
O95          C98   1.262       .  A
O96         C108   1.274   1_545  A
O97         C110   1.274       .  A
C98         O103   1.269       .  A
C98         C990   1.467       .  S
C99        C1070   1.485       .  S
O101        C104   1.268       .  A
O102        C104   1.263       .  A
C104       C1010   1.482       .  S
O105        C110   1.271       .  A
O106        C108   1.275   1_545  A
C107        O109   1.272       .  A
C107       C1020   1.486   1_545  S
C108       C1113   1.488       .  S
C110       C1003   1.474       .  S
Fe111       O127   2.054       .  S
Fe111       O117   2.044       .  S
Fe111       O124   2.051       .  S
Fe111       O116   2.062       .  S
Fe111       O122   1.953       .  S
Fe112       O115   2.055       .  S
Fe112       O119   2.089       .  S
Fe112       O123   2.071       .  S
Fe112       O128   2.086       .  S
Fe112       O122   1.972       .  S
Fe113       O131   2.082       .  S
Fe113       O118   2.069       .  S
Fe113       O125   2.072       .  S
Fe113       O114   2.092       .  S
Fe113       O122   1.972       .  S
O114        C121   1.276       .  A
O115        C129   1.267       .  A
O116        C121   1.272       .  A
O117        C120   1.263       .  A
O118        C130   1.273       .  A
O119        C132   1.273       .  A
C120        O125   1.267       .  A
C120        C980   1.463       .  S
C121       C1143   1.486       .  S
O123        C126   1.269       .  A
O124        C126   1.265       .  A
C126        C960   1.483       .  S
O127        C132   1.270       .  A
O128        C130   1.276       .  A
C129        O131   1.272       .  A
C129        C970   1.486   1_655  S
C130       C1063   1.491   1_655  S
C132        C950   1.478       .  S
Fe133       O149   2.042       .  S
Fe133       O139   2.049       .  S
Fe133       O146   2.060       .  S
Fe133       O138   2.053       .  S
Fe133       O144   1.953       .  S
Fe134       O137   2.080       .  S
Fe134       O141   2.072       .  S
Fe134       O145   2.096       .  S
Fe134       O150   2.062       .  S
Fe134       O144   1.972       .  S
Fe135       O153   2.050       .  S
Fe135       O140   2.082       .  S
Fe135       O147   2.084       .  S
Fe135       O136   2.070       .  S
Fe135       O144   1.976       .  S
O136        C143   1.268       .  A
O137        C151   1.272       .  A
O138        C143   1.264       .  A
O139        C142   1.270       .  A
O140        C152   1.275       .  A
O141        C154   1.266       .  A
C142        O147   1.273       .  A
C142        C930   1.474       .  S
C143        C940   1.484       .  S
O145        C148   1.277       .  A
O146        C148   1.272       .  A
C148        C910   1.489       .  S
O149        C154   1.262       .  A
O150        C152   1.272       .  A
C151        O153   1.266       .  A
C151        C963   1.484       .  S
C152        C900   1.487       .  S
C154        C920   1.463       .  S
Fe155       O171   2.051       .  S
Fe155       O161   2.050       .  S
Fe155       O168   2.057       .  S
Fe155       O160   2.056       .  S
Fe155       O166   1.949       .  S
Fe156       O159   2.055       .  S
Fe156       O163   2.091       .  S
Fe156       O167   2.073       .  S
Fe156       O172   2.087       .  S
Fe156       O166   1.964       .  S
Fe157       O175   2.083       .  S
Fe157       O162   2.063       .  S
Fe157       O169   2.076       .  S
Fe157       O158   2.094       .  S
Fe157       O166   1.965       .  S
O158        C165   1.277       .  A
O159        C173   1.267       .  A
O160        C165   1.272       .  A
O161        C164   1.263       .  A
O162        C174   1.273       .  A
O163        C176   1.276       .  A
C164        O169   1.268       .  A
C164        C953   1.465       .  S
C165        C903   1.484       .  S
O167        C170   1.268       .  A
O168        C170   1.264       .  A
C170        C883   1.487       .  S
O171        C176   1.272       .  A
O172        C174   1.277       .  A
C173        O175   1.272       .  A
C173        C890   1.487       .  S
C174        C860   1.488       .  S
C176        C870   1.477       .  S
Fe177       O193   2.043       .  S
Fe177       O183   2.054       .  S
Fe177       O190   2.060       .  S
Fe177       O182   2.055       .  S
Fe177       O188   1.953       .  S
Fe178       O181   2.084       .  S
Fe178       O185   2.071       .  S
Fe178       O189   2.091       .  S
Fe178       O194   2.062       .  S
Fe178       O188   1.973       .  S
Fe179       O197   2.055       .  S
Fe179       O184   2.079       .  S
Fe179       O191   2.082       .  S
Fe179       O180   2.072       .  S
Fe179       O188   1.972       .  S
O180        C187   1.269       .  A
O181        C195   1.274       .  A
O182        C187   1.265       .  A
O183        C186   1.271       .  A
O184        C196   1.274       .  A
O185        C198   1.265       .  A
C186        O191   1.273       .  A
C186        C840   1.473       .  S
C187        C853   1.485       .  S
O189        C192   1.277       .  A
O190        C192   1.273       .  A
C192        C820   1.486       .  S
O193        C198   1.262       .  A
O194        C196   1.271       .  A
C195        O197   1.268       .  A
C195        C830   1.487       .  S
C196        C810   1.487       .  S
C198       C1093   1.463       .  S
Fe199       O215   2.052       .  S
Fe199       O205   2.048       .  S
Fe199       O212   2.052       .  S
Fe199       O204   2.059       .  S
Fe199       O210   1.956       .  S
Fe200       O203   2.060       .  S
Fe200       O207   2.094       .  S
Fe200       O211   2.077       .  S
Fe200       O216   2.095       .  S
Fe200       O210   1.970       .  S
Fe201       O219   2.077       .  S
Fe201       O206   2.066       .  S
Fe201       O213   2.076       .  S
Fe201       O202   2.088       .  S
Fe201       O210   1.970       .  S
O202        C209   1.275       .  A
O203        C217   1.267       .  A
O204        C209   1.271       .  A
O205        C208   1.263       .  A
O206        C218   1.274       .  A
O207        C220   1.276       .  A
C208        O213   1.268       .  A
C208        C800   1.465       .  S
C209        C813   1.484       .  S
O211        C214   1.270       .  A
O212        C214   1.264       .  A
C214       C1053   1.487       .  S
O215        C220   1.271       .  A
O216        C218   1.279       .  A
C217        O219   1.270       .  A
C217        C790   1.486       .  S
C218        C913   1.492       .  S
C220        C993   1.479       .  S
Fe221       O237   2.046       .  S
Fe221       O227   2.051       .  S
Fe221       O234   2.060       .  S
Fe221       O226   2.057       .  S
Fe221       O232   1.952       .  S
Fe222       O225   2.080       .  S
Fe222       O229   2.074       .  S
Fe222       O233   2.093       .  S
Fe222       O238   2.067       .  S
Fe222       O232   1.969       .  S
Fe223       O241   2.053       .  S
Fe223       O228   2.086       .  S
Fe223       O235   2.085       .  S
Fe223       O224   2.077       .  S
Fe223       O232   1.970       .  S
O224        C231   1.270       .  A
O225        C239   1.273       .  A
O226        C231   1.265       .  A
O227        C230   1.271       .  A
O228        C240   1.276       .  A
O229        C242   1.265       .  A
C230        O235   1.274       .  A
C230       C1183   1.473       .  S
C231       C1243   1.488       .  S
O233        C236   1.278       .  A
O234        C236   1.274       .  A
C236        C863   1.484       .  S
O237        C242   1.262       .  A
O238        C240   1.273       .  A
C239        O241   1.267       .  A
C239        C780   1.484       .  S
C240        C760   1.492       .  S
C242        C770   1.465       .  S
Fe243       O259   2.049       .  S
Fe243       O249   2.048       .  S
Fe243       O256   2.059       .  S
Fe243       O248   2.059       .  S
Fe243       O254   1.951       .  S
Fe244       O247   2.050       .  S
Fe244       O251   2.088       .  S
Fe244       O255   2.073       .  S
Fe244       O260   2.087       .  S
Fe244       O254   1.971       .  S
Fe245       O263   2.087       .  S
Fe245       O250   2.062       .  S
Fe245       O257   2.068       .  S
Fe245       O246   2.101       .  S
Fe245       O254   1.971       .  S
O246        C253   1.279       .  A
O247        C261   1.266       .  A
O248        C253   1.273       .  A
O249        C252   1.263       .  A
O250        C262   1.272       .  A
O251        C264   1.274       .  A
C252        O257   1.265       .  A
C252        C750   1.463       .  S
C253        C763   1.489       .  S
O255        C258   1.269       .  A
O256        C258   1.265       .  A
C258        C740   1.487       .  S
O259        C264   1.271       .  A
O260        C262   1.276       .  A
C261        O263   1.273       .  A
C261       C1100   1.487       .  S
C262        C823   1.489       .  S
C264        C730   1.473       .  S
Fe265       O281   2.050       .  S
Fe265       O271   2.044       .  S
Fe265       O278   2.052       .  S
Fe265       O270   2.057       .  S
Fe265       O276   1.953       .  S
Fe266       O269   2.052       .  S
Fe266       O273   2.090       .  S
Fe266       O277   2.073       .  S
Fe266       O282   2.087       .  S
Fe266       O276   1.971       .  S
Fe267       O285   2.082       .  S
Fe267       O272   2.064       .  S
Fe267       O279   2.073       .  S
Fe267       O268   2.096       .  S
Fe267       O276   1.972       .  S
O268        C275   1.277       .  A
O269        C283   1.266       .  A
O270        C275   1.272       .  A
O271        C274   1.262       .  A
O272        C284   1.273       .  A
O273        C286   1.275       .  A
C274        O279   1.266       .  A
C274        C720   1.464       .  S
C275        C700   1.486       .  S
O277        C280   1.268       .  A
O278        C280   1.264       .  A
C280       C1123   1.485       .  S
O281        C286   1.271       .  A
O282        C284   1.276       .  A
C283        O285   1.272       .  A
C283        C943   1.485       .  S
C284        C710   1.490       .  S
C286       C1233   1.475       .  S
Fe287       O303   2.042       .  S
Fe287       O293   2.050       .  S
Fe287       O300   2.059       .  S
Fe287       O292   2.057       .  S
Fe287       O298   1.952       .  S
Fe288       O291   2.085       .  S
Fe288       O295   2.069       .  S
Fe288       O299   2.096       .  S
Fe288       O304   2.062       .  S
Fe288       O298   1.973       .  S
Fe289       O307   2.048       .  S
Fe289       O294   2.082       .  S
Fe289       O301   2.086       .  S
Fe289       O290   2.070       .  S
Fe289       O298   1.972       .  S
O290        C297   1.268       .  A
O291        C305   1.273       .  A
O292        C297   1.265       .  A
O293        C296   1.270       .  A
O294        C306   1.274       .  A
O295        C308   1.264       .  A
C296        O301   1.273       .  A
C296        C680   1.474       .  S
C297        C690   1.485       .  S
O299        C302   1.278       .  A
O300        C302   1.273       .  A
C302        C713   1.487       .  S
O303        C308   1.262       .  A
O304        C306   1.271       .  A
C305        O307   1.266       .  A
C305       C1013   1.485   1_655  S
C306        C670   1.488   1_655  S
C308        C933   1.462       .  S
Fe309       O325   2.041       .  S
Fe309       O315   2.052       .  S
Fe309       O322   2.059       .  S
Fe309       O314   2.055       .  S
Fe309       O320   1.951       .  S
Fe310       O313   2.079   1_554  S
Fe310       O317   2.076       .  S
Fe310       O321   2.089       .  S
Fe310       O326   2.066   1_554  S
Fe310       O320   1.972       .  S
Fe311       O329   2.054       .  S
Fe311       O316   2.084       .  S
Fe311       O323   2.088       .  S
Fe311       O312   2.073       .  S
Fe311       O320   1.970       .  S
O312        C319   1.269       .  A
O313        C327   1.272       .  A
O314        C319   1.265       .  A
O315        C318   1.270       .  A
O316        C328   1.275   1_554  A
O317        C330   1.267       .  A
C318        O323   1.274       .  A
C318        C773   1.475       .  S
C319        C893   1.485       .  S
O321        C324   1.276       .  A
O322        C324   1.273       .  A
C324        C650   1.484       .  S
O325        C330   1.262       .  A
O326        C328   1.273       .  A
C327        O329   1.267   1_556  A
C327        C663   1.483       .  S
C328        C703   1.489       .  S
C330       C1153   1.464       .  S
Fe331       O347   2.046       .  S
Fe331       O337   2.049       .  S
Fe331       O344   2.056       .  S
Fe331       O336   2.054       .  S
Fe331       O342   1.956       .  S
Fe332       O335   2.086       .  S
Fe332       O339   2.072       .  S
Fe332       O343   2.096       .  S
Fe332       O348   2.063       .  S
Fe332       O342   1.974       .  S
Fe333       O351   2.057       .  S
Fe333       O338   2.087       .  S
Fe333       O345   2.093       .  S
Fe333       O334   2.071       .  S
Fe333       O342   1.974       .  S
O334        C341   1.268       .  A
O335        C349   1.273       .  A
O336        C341   1.264       .  A
O337        C340   1.270       .  A
O338        C350   1.276       .  A
O339        C352   1.266       .  A
C340        O345   1.275       .  A
C340       C1083   1.479       .  S
C341        C973   1.485       .  S
O343        C346   1.277       .  A
O344        C346   1.271       .  A
C346        C620   1.485       .  S
O347        C352   1.263       .  A
O348        C350   1.272       .  A
C349        O351   1.267       .  A
C349        C743   1.490       .  S
C350        C630   1.489       .  S
C352        C640   1.463       .  S
Fe353       O369   2.052       .  S
Fe353       O359   2.043       .  S
Fe353       O366   2.051       .  S
Fe353       O358   2.060       .  S
Fe353       O364   1.958       .  S
Fe354       O357   2.056       .  S
Fe354       O361   2.086       .  S
Fe354       O365   2.077       .  S
Fe354       O370   2.085       .  S
Fe354       O364   1.978       .  S
Fe355       O373   2.079   1_455  S
Fe355       O360   2.059   1_455  S
Fe355       O367   2.070       .  S
Fe355       O356   2.091       .  S
Fe355       O364   1.979       .  S
O356        C363   1.275       .  A
O357        C371   1.267   1_455  A
O358        C363   1.272       .  A
O359        C362   1.262       .  A
O360        C372   1.272       .  A
O361        C374   1.274       .  A
C362        O367   1.265       .  A
C362        C733   1.463       .  S
C363        C633   1.486       .  S
O365        C368   1.269       .  A
O366        C368   1.263       .  A
C368        C610   1.488       .  S
O369        C374   1.271       .  A
O370        C372   1.276   1_455  A
C371        O373   1.271       .  A
C371       C1163   1.486       .  S
C372        C653   1.487       .  S
C374        C600   1.477       .  S
Fe375       O391   2.056       .  S
Fe375       O381   2.046       .  S
Fe375       O388   2.056       .  S
Fe375       O380   2.058       .  S
Fe375       O386   1.948       .  S
Fe376       O379   2.055       .  S
Fe376       O383   2.089       .  S
Fe376       O387   2.071       .  S
Fe376       O392   2.088       .  S
Fe376       O386   1.964       .  S
Fe377       O395   2.083       .  S
Fe377       O382   2.064       .  S
Fe377       O389   2.071       .  S
Fe377       O378   2.094       .  S
Fe377       O386   1.966       .  S
O378        C385   1.276       .  A
O379        C393   1.267       .  A
O380        C385   1.272       .  A
O381        C384   1.263       .  A
O382        C394   1.273   1_556  A
O383        C396   1.275       .  A
C384        O389   1.266       .  A
C384       C1000   1.461       .  S
C385        C673   1.485       .  S
O387        C390   1.269       .  A
O388        C390   1.265       .  A
C390        C833   1.484       .  S
O391        C396   1.271       .  A
O392        C394   1.276   1_556  A
C393        O395   1.273       .  A
C393        C590   1.486   1_556  S
C394        C623   1.489       .  S
C396        C803   1.477       .  S
Fe397       O413   2.051       .  S
Fe397       O403   2.045       .  S
Fe397       O410   2.056       .  S
Fe397       O402   2.056       .  S
Fe397       O408   1.953       .  S
Fe398       O401   2.053       .  S
Fe398       O405   2.089       .  S
Fe398       O409   2.068       .  S
Fe398       O414   2.085       .  S
Fe398       O408   1.969       .  S
Fe399       O417   2.086       .  S
Fe399       O404   2.067       .  S
Fe399       O411   2.074       .  S
Fe399       O400   2.098       .  S
Fe399       O408   1.970       .  S
O400        C407   1.277       .  A
O401        C415   1.267       .  A
O402        C407   1.272       .  A
O403        C406   1.262       .  A
O404        C416   1.273       .  A
O405        C418   1.274       .  A
C406        O411   1.266       .  A
C406       C1213   1.462       .  S
C407        C570   1.487       .  S
O409        C412   1.268       .  A
O410        C412   1.265       .  A
C412        C660   1.483       .  S
O413        C418   1.270       .  A
O414        C416   1.275       .  A
C415        O417   1.274       .  A
C415        C850   1.486       .  S
C416        C580   1.491       .  S
C418        C723   1.477       .  S
Fe419       O435   2.052       .  S
Fe419       O425   2.051       .  S
Fe419       O432   2.055       .  S
Fe419       O424   2.060       .  S
Fe419       O430   1.946       .  S
Fe420       O423   2.093       .  S
Fe420       O427   2.069       .  S
Fe420       O431   2.106       .  S
Fe420       O436   2.062       .  S
Fe420       O430   1.964       .  S
Fe421       O439   2.051       .  S
Fe421       O426   2.088       .  S
Fe421       O433   2.093       .  S
Fe421       O422   2.070       .  S
Fe421       O430   1.962       .  S
O422        C429   1.268       .  A
O423        C437   1.275       .  A
O424        C429   1.266       .  A
O425        C428   1.271       .  A
O426        C438   1.277   1_556  A
O427        C440   1.266       .  A
C428        O433   1.276       .  A
C428       C1133   1.480       .  S
C429       C1023   1.486       .  S
O431        C434   1.279       .  A
O432        C434   1.271       .  A
C434        C583   1.488       .  S
O435        C440   1.264       .  A
O436        C438   1.273   1_556  A
C437        O439   1.266       .  A
C437        C613   1.489   1_556  S
C438        C563   1.487       .  S
C440        C843   1.460       .  S
Fe441       O457   2.048       .  S
Fe441       O447   2.050       .  S
Fe441       O454   2.060       .  S
Fe441       O446   2.056       .  S
Fe441       O452   1.951       .  S
Fe442       O445   2.085       .  S
Fe442       O449   2.070       .  S
Fe442       O453   2.099       .  S
Fe442       O458   2.061       .  S
Fe442       O452   1.966       .  S
Fe443       O461   2.056       .  S
Fe443       O448   2.089       .  S
Fe443       O455   2.090       .  S
Fe443       O444   2.075       .  S
Fe443       O452   1.968       .  S
O444        C451   1.269       .  A
O445        C459   1.273       .  A
O446        C451   1.265       .  A
O447        C450   1.271       .  A
O448        C460   1.276       .  A
O449        C462   1.265       .  A
C450        O455   1.275       .  A
C450        C923   1.476       .  S
C451        C793   1.487       .  S
O453        C456   1.278       .  A
O454        C456   1.272       .  A
C456        C550   1.487       .  S
O457        C462   1.263       .  A
O458        C460   1.272       .  A
C459        O461   1.267       .  A
C459       C1223   1.488   1_545  S
C460        C573   1.489   1_545  S
C462        C683   1.462       .  S
Fe463       O479   2.043       .  S
Fe463       O469   2.051       .  S
Fe463       O476   2.060       .  S
Fe463       O468   2.053       .  S
Fe463       O474   1.955       .  S
Fe464       O467   2.086       .  S
Fe464       O471   2.075       .  S
Fe464       O475   2.098       .  S
Fe464       O480   2.064       .  S
Fe464       O474   1.974       .  S
Fe465       O483   2.057       .  S
Fe465       O470   2.082       .  S
Fe465       O477   2.087       .  S
Fe465       O466   2.075       .  S
Fe465       O474   1.976       .  S
O466        C473   1.269       .  A
O467        C481   1.274       .  A
O468        C473   1.265       .  A
O469        C472   1.270       .  A
O470        C482   1.275       .  A
O471        C484   1.267       .  A
C472        O477   1.273       .  A
C472        C643   1.474       .  S
C473        C593   1.486       .  S
O475        C478   1.277       .  A
O476        C478   1.272       .  A
C478        C530   1.489       .  S
O479        C484   1.263       .  A
O480        C482   1.273       .  A
C481        O483   1.267       .  A
C481        C880   1.488       .  S
C482        C540   1.488       .  S
C484       C1030   1.466       .  S
Fe485       O501   2.048       .  S
Fe485       O491   2.040       .  S
Fe485       O498   2.045       .  S
Fe485       O490   2.055       .  S
Fe485       O496   1.952       .  S
Fe486       O489   2.054       .  S
Fe486       O493   2.089       .  S
Fe486       O497   2.076       .  S
Fe486       O502   2.083       .  S
Fe486       O496   1.971       .  S
Fe487       O505   2.081       .  S
Fe487       O492   2.071   1_554  S
Fe487       O499   2.079       .  S
Fe487       O488   2.095       .  S
Fe487       O496   1.970       .  S
O488        C495   1.277       .  A
O489        C503   1.267       .  A
O490        C495   1.271       .  A
O491        C494   1.261       .  A
O492        C504   1.274       .  A
O493        C506   1.274       .  A
C494        O499   1.268       .  A
C494        C873   1.464       .  S
C495        C543   1.485       .  S
O497        C500   1.269       .  A
O498        C500   1.263       .  A
C500       C1173   1.484       .  S
O501        C506   1.270       .  A
O502        C504   1.276   1_554  A
C503        O505   1.272       .  A
C503        C693   1.486   1_554  S
C504        C553   1.490       .  S
C506        C983   1.475       .  S
Fe507       O523   2.046       .  S
Fe507       O513   2.043       .  S
Fe507       O520   2.050       .  S
Fe507       O512   2.054       .  S
Fe507       O518   1.950       .  S
Fe508       O511   2.047       .  S
Fe508       O515   2.092       .  S
Fe508       O519   2.070       .  S
Fe508       O524   2.086       .  S
Fe508       O518   1.969       .  S
Fe509       O527   2.081       .  S
Fe509       O514   2.071   1_565  S
Fe509       O521   2.077       .  S
Fe509       O510   2.096       .  S
Fe509       O518   1.968       .  S
O510        C517   1.278       .  A
O511        C525   1.266       .  A
O512        C517   1.272       .  A
O513        C516   1.262       .  A
O514        C526   1.274       .  A
O515        C528   1.275       .  A
C516        O521   1.267       .  A
C516        C603   1.465       .  S
C517        C560   1.482       .  S
O519        C522   1.268       .  A
O520        C522   1.263       .  A
C522        C783   1.482       .  S
O523        C528   1.270       .  A
O524        C526   1.276   1_565  A
C525        O527   1.273       .  A
C525       C1043   1.483   1_565  S
C526        C533   1.492       .  S
C528        C753   1.476       .  S
C529        C530   1.406       .  A
C529        C534   1.400       .  A
C529        H535   1.083       .  S
C530        C531   1.407       .  A
C531        C532   1.403       .  A
C531        H536   1.083       .  S
C532        C533   1.408       .  A
C532        H537   1.083       .  S
C533        C534   1.408       .  A
C534        H538   1.083       .  S
C539        C540   1.407       .  A
C539        C544   1.397       .  A
C539        H545   1.083       .  S
C540        C541   1.408       .  A
C541        C542   1.402       .  A
C541        H546   1.083       .  S
C542        C543   1.407       .  A
C542        H547   1.083       .  S
C543        C544   1.405       .  A
C544        H548   1.083       .  S
C549        C550   1.406       .  A
C549        C554   1.400       .  A
C549        H555   1.083       .  S
C550        C551   1.406       .  A
C551        C552   1.401       .  A
C551        H556   1.083       .  S
C552        C553   1.408       .  A
C552        H557   1.083       .  S
C553        C554   1.408       .  A
C554        H558   1.083       .  S
C559        C560   1.406       .  A
C559        C564   1.400       .  A
C559        H565   1.083       .  S
C560        C561   1.405       .  A
C561        C562   1.398       .  A
C561        H566   1.083       .  S
C562        C563   1.408       .  A
C562        H567   1.083       .  S
C563        C564   1.407       .  A
C564        H568   1.083       .  S
C569        C570   1.408       .  A
C569        C574   1.404       .  A
C569        H575   1.083       .  S
C570        C571   1.405       .  A
C571        C572   1.397       .  A
C571        H576   1.083       .  S
C572        C573   1.408       .  A
C572        H577   1.083       .  S
C573        C574   1.408       .  A
C574        H578   1.083       .  S
C579        C580   1.407       .  A
C579        C584   1.399       .  A
C579        H585   1.083       .  S
C580        C581   1.408       .  A
C581        C582   1.403       .  A
C581        H586   1.083       .  S
C582        C583   1.407       .  A
C582        H587   1.083       .  S
C583        C584   1.406       .  A
C584        H588   1.083       .  S
C589        C590   1.409       .  A
C589        C594   1.400       .  A
C589        H595   1.083   1_554  S
C590        C591   1.404       .  A
C591        C592   1.398       .  A
C591        H596   1.083       .  S
C592        C593   1.409       .  A
C592        H597   1.083       .  S
C593        C594   1.404       .  A
C594        H598   1.083       .  S
C599        C600   1.404       .  A
C599        C604   1.391       .  A
C599        H605   1.083       .  S
C600        C601   1.407       .  A
C601        C602   1.404       .  A
C601        H606   1.083       .  S
C602        C603   1.404       .  A
C602        H607   1.083       .  S
C603        C604   1.401       .  A
C604        H608   1.083       .  S
C609        C610   1.410       .  A
C609        C614   1.400       .  A
C609        H615   1.083       .  S
C610        C611   1.404       .  A
C611        C612   1.400       .  A
C611        H616   1.083       .  S
C612        C613   1.410       .  A
C612        H617   1.083   1_554  S
C613        C614   1.404       .  A
C614        H618   1.083       .  S
C619        C620   1.405       .  A
C619        C624   1.398       .  A
C619        H625   1.083       .  S
C620        C621   1.407       .  A
C621        C622   1.402       .  A
C621        H626   1.083       .  S
C622        C623   1.408       .  A
C622        H627   1.083       .  S
C623        C624   1.407       .  A
C624        H628   1.083       .  S
C629        C630   1.408       .  A
C629        C634   1.398       .  A
C629        H635   1.083       .  S
C630        C631   1.407       .  A
C631        C632   1.403       .  A
C631        H636   1.083       .  S
C632        C633   1.407       .  A
C632        H637   1.083       .  S
C633        C634   1.405       .  A
C634        H638   1.083       .  S
C639        C640   1.400       .  A
C639        C644   1.393       .  A
C639        H645   1.084       .  S
C640        C641   1.404       .  A
C641        C642   1.402       .  A
C641        H646   1.083       .  S
C642        C643   1.405       .  A
C642        H647   1.083       .  S
C643        C644   1.404       .  A
C644        H648   1.084       .  S
C649        C650   1.408       .  A
C649        C654   1.401       .  A
C649        H655   1.083       .  S
C650        C651   1.404       .  A
C651        C652   1.397       .  A
C651        H656   1.083       .  S
C652        C653   1.408       .  A
C652        H657   1.083       .  S
C653        C654   1.406       .  A
C654        H658   1.083       .  S
C659        C660   1.409       .  A
C659        C664   1.398       .  A
C659        H665   1.083       .  S
C660        C661   1.404       .  A
C661        C662   1.398       .  A
C661        H666   1.083       .  S
C662        C663   1.408       .  A
C662        H667   1.083       .  S
C663        C664   1.404       .  A
C664        H668   1.083       .  S
C669        C670   1.407       .  A
C669        C674   1.401       .  A
C669        H675   1.083       .  S
C670        C671   1.408       .  A
C671        C672   1.398       .  A
C671        H676   1.083       .  S
C672        C673   1.405       .  A
C672        H677   1.083       .  S
C673        C674   1.407       .  A
C674        H678   1.083       .  S
C679        C680   1.404       .  A
C679        C684   1.393       .  A
C679        H685   1.083       .  S
C680        C681   1.405       .  A
C681        C682   1.401       .  A
C681        H686   1.083       .  S
C682        C683   1.403       .  A
C682        H687   1.083       .  S
C683        C684   1.401       .  A
C684        H688   1.084       .  S
C689        C690   1.404       .  A
C689        C694   1.399       .  A
C689        H695   1.083       .  S
C690        C691   1.409       .  A
C691        C692   1.399       .  A
C691        H696   1.083       .  S
C692        C693   1.404       .  A
C692        H697   1.083       .  S
C693        C694   1.409       .  A
C694        H698   1.083       .  S
C699        C700   1.406       .  A
C699        C704   1.398       .  A
C699        H705   1.083       .  S
C700        C701   1.407       .  A
C701        C702   1.402       .  A
C701        H706   1.083       .  S
C702        C703   1.408       .  A
C702        H707   1.083       .  S
C703        C704   1.407       .  A
C704        H708   1.083       .  S
C709        C710   1.408       .  A
C709        C714   1.398       .  A
C709        H715   1.083       .  S
C710        C711   1.407       .  A
C711        C712   1.403       .  A
C711        H716   1.083       .  S
C712        C713   1.407       .  A
C712        H717   1.083       .  S
C713        C714   1.406       .  A
C714        H718   1.083       .  S
C719        C720   1.401       .  A
C719        C724   1.393       .  A
C719        H725   1.083       .  S
C720        C721   1.403       .  A
C721        C722   1.402       .  A
C721        H726   1.083       .  S
C722        C723   1.407       .  A
C722        H727   1.083       .  S
C723        C724   1.404       .  A
C724        H728   1.083       .  S
C729        C730   1.404       .  A
C729        C734   1.392       .  A
C729        H735   1.083       .  S
C730        C731   1.405       .  A
C731        C732   1.402       .  A
C731        H736   1.083       .  S
C732        C733   1.403       .  A
C732        H737   1.083       .  S
C733        C734   1.400       .  A
C734        H738   1.084       .  S
C739        C740   1.405       .  A
C739        C744   1.401       .  A
C739        H745   1.083       .  S
C740        C741   1.409       .  A
C741        C742   1.400       .  A
C741        H746   1.083       .  S
C742        C743   1.405       .  A
C742        H747   1.083       .  S
C743        C744   1.410       .  A
C744        H748   1.083       .  S
C749        C750   1.399       .  A
C749        C754   1.391       .  A
C749        H755   1.084       .  S
C750        C751   1.404       .  A
C751        C752   1.403       .  A
C751        H756   1.083       .  S
C752        C753   1.406       .  A
C752        H757   1.083       .  S
C753        C754   1.404       .  A
C754        H758   1.083       .  S
C759        C760   1.408       .  A
C759        C764   1.400       .  A
C759        H765   1.083       .  S
C760        C761   1.408       .  A
C761        C762   1.403       .  A
C761        H766   1.083       .  S
C762        C763   1.408       .  A
C762        H767   1.083       .  S
C763        C764   1.406       .  A
C764        H768   1.083       .  S
C769        C770   1.401       .  A
C769        C774   1.394       .  A
C769        H775   1.084       .  S
C770        C771   1.403       .  A
C771        C772   1.402       .  A
C771        H776   1.083       .  S
C772        C773   1.405       .  A
C772        H777   1.083       .  S
C773        C774   1.404       .  A
C774        H778   1.083       .  S
C779        C780   1.409       .  A
C779        C784   1.398       .  A
C779        H785   1.083       .  S
C780        C781   1.404       .  A
C781        C782   1.397       .  A
C781        H786   1.083       .  S
C782        C783   1.409       .  A
C782        H787   1.083       .  S
C783        C784   1.403       .  A
C784        H788   1.083       .  S
C789        C790   1.408       .  A
C789        C794   1.401       .  A
C789        H795   1.083       .  S
C790        C791   1.404       .  A
C791        C792   1.398       .  A
C791        H796   1.083       .  S
C792        C793   1.409       .  A
C792        H797   1.083       .  S
C793        C794   1.405       .  A
C794        H798   1.083       .  S
C799        C800   1.403       .  A
C799        C804   1.402       .  A
C799        H805   1.083       .  S
C800        C801   1.402       .  A
C801        C802   1.395       .  A
C801        H806   1.083       .  S
C802        C803   1.404       .  A
C802        H807   1.083       .  S
C803        C804   1.406       .  A
C804        H808   1.083       .  S
C809        C810   1.408       .  A
C809        C814   1.399       .  A
C809        H815   1.083       .  S
C810        C811   1.406       .  A
C811        C812   1.400       .  A
C811        H816   1.083       .  S
C812        C813   1.407       .  A
C812        H817   1.083       .  S
C813        C814   1.405       .  A
C814        H818   1.083       .  S
C819        C820   1.407       .  A
C819        C824   1.402       .  A
C819        H825   1.083       .  S
C820        C821   1.405       .  A
C821        C822   1.398       .  A
C821        H826   1.083       .  S
C822        C823   1.408       .  A
C822        H827   1.083       .  S
C823        C824   1.407       .  A
C824        H828   1.083       .  S
C829        C830   1.409       .  A
C829        C834   1.400       .  A
C829        H835   1.083       .  S
C830        C831   1.404       .  A
C831        C832   1.398       .  A
C831        H836   1.083       .  S
C832        C833   1.409       .  A
C832        H837   1.083       .  S
C833        C834   1.404       .  A
C834        H838   1.083       .  S
C839        C840   1.406       .  A
C839        C844   1.401       .  A
C839        H845   1.083       .  S
C840        C841   1.403       .  A
C841        C842   1.393       .  A
C841        H846   1.084       .  S
C842        C843   1.400       .  A
C842        H847   1.084       .  S
C843        C844   1.403       .  A
C844        H848   1.083       .  S
C849        C850   1.409       .  A
C849        C854   1.400       .  A
C849        H855   1.083       .  S
C850        C851   1.404       .  A
C851        C852   1.399       .  A
C851        H856   1.083       .  S
C852        C853   1.409       .  A
C852        H857   1.083       .  S
C853        C854   1.404       .  A
C854        H858   1.083       .  S
C859        C860   1.407       .  A
C859        C864   1.401       .  A
C859        H865   1.083       .  S
C860        C861   1.408       .  A
C861        C862   1.398       .  A
C861        H866   1.083       .  S
C862        C863   1.405       .  A
C862        H867   1.083       .  S
C863        C864   1.407       .  A
C864        H868   1.083       .  S
C869        C870   1.404       .  A
C869        C874   1.392       .  A
C869        H875   1.083       .  S
C870        C871   1.407       .  A
C871        C872   1.403       .  A
C871        H876   1.083       .  S
C872        C873   1.403       .  A
C872        H877   1.083       .  S
C873        C874   1.401       .  A
C874        H878   1.083       .  S
C879        C880   1.405       .  A
C879        C884   1.400       .  A
C879        H885   1.083       .  S
C880        C881   1.409       .  A
C881        C882   1.401       .  A
C881        H886   1.083       .  S
C882        C883   1.405       .  A
C882        H887   1.083       .  S
C883        C884   1.409       .  A
C884        H888   1.083       .  S
C889        C890   1.409       .  A
C889        C894   1.401       .  A
C889        H895   1.083       .  S
C890        C891   1.404       .  A
C891        C892   1.398       .  A
C891        H896   1.083       .  S
C892        C893   1.409       .  A
C892        H897   1.083       .  S
C893        C894   1.404       .  A
C894        H898   1.083       .  S
C899        C900   1.407       .  A
C899        C904   1.401       .  A
C899        H905   1.083       .  S
C900        C901   1.407       .  A
C901        C902   1.397       .  A
C901        H906   1.083       .  S
C902        C903   1.405       .  A
C902        H907   1.083       .  S
C903        C904   1.408       .  A
C904        H908   1.083       .  S
C909        C910   1.408       .  A
C909        C914   1.404       .  A
C909        H915   1.083       .  S
C910        C911   1.406       .  A
C911        C912   1.399       .  A
C911        H916   1.083       .  S
C912        C913   1.409       .  A
C912        H917   1.083       .  S
C913        C914   1.408       .  A
C914        H918   1.083       .  S
C919        C920   1.403       .  A
C919        C924   1.402       .  A
C919        H925   1.083       .  S
C920        C921   1.401       .  A
C921        C922   1.392       .  A
C921        H926   1.084       .  S
C922        C923   1.404       .  A
C922        H927   1.083       .  S
C923        C924   1.407       .  A
C924        H928   1.083       .  S
C929        C930   1.406       .  A
C929        C934   1.402       .  A
C929        H935   1.083       .  S
C930        C931   1.403       .  A
C931        C932   1.391       .  A
C931        H936   1.083       .  S
C932        C933   1.400       .  A
C932        H937   1.084       .  S
C933        C934   1.403       .  A
C934        H938   1.083       .  S
C939        C940   1.404       .  A
C939        C944   1.398       .  A
C939        H945   1.083       .  S
C940        C941   1.409       .  A
C941        C942   1.399       .  A
C941        H946   1.083       .  S
C942        C943   1.404       .  A
C942        H947   1.083       .  S
C943        C944   1.409       .  A
C944        H948   1.083       .  S
C949        C950   1.404       .  A
C949        C954   1.394       .  A
C949        H955   1.083       .  S
C950        C951   1.406       .  A
C951        C952   1.404       .  A
C951        H956   1.083       .  S
C952        C953   1.404       .  A
C952        H957   1.083       .  S
C953        C954   1.401       .  A
C954        H958   1.084       .  S
C959        C960   1.404       .  A
C959        C964   1.399       .  A
C959        H965   1.083       .  S
C960        C961   1.409       .  A
C961        C962   1.397       .  A
C961        H966   1.083       .  S
C962        C963   1.403       .  A
C962        H967   1.083       .  S
C963        C964   1.409       .  A
C964        H968   1.083       .  S
C969        C970   1.405       .  A
C969        C974   1.399       .  A
C969        H975   1.083       .  S
C970        C971   1.408       .  A
C971        C972   1.399       .  A
C971        H976   1.083   1_455  S
C972        C973   1.404       .  A
C972        H977   1.083       .  S
C973        C974   1.409       .  A
C974        H978   1.083       .  S
C979        C980   1.400       .  A
C979        C984   1.391       .  A
C979        H985   1.084       .  S
C980        C981   1.403       .  A
C981        C982   1.403       .  A
C981        H986   1.083       .  S
C982        C983   1.406       .  A
C982        H987   1.083       .  S
C983        C984   1.404       .  A
C984        H988   1.083       .  S
C989        C990   1.401       .  A
C989        C994   1.393       .  A
C989        H995   1.084       .  S
C990        C991   1.404       .  A
C991        C992   1.404       .  A
C991        H996   1.083       .  S
C992        C993   1.406       .  A
C992        H997   1.083       .  S
C993        C994   1.404       .  A
C994        H998   1.083       .  S
C999       C1000   1.403       .  A
C999       C1004   1.402       .  A
C999       H1005   1.083       .  S
C1000      C1001   1.400       .  A
C1001      C1002   1.390       .  A
C1001      H1006   1.084       .  S
C1002      C1003   1.403       .  A
C1002      H1007   1.083       .  S
C1003      C1004   1.406       .  A
C1004      H1008   1.083       .  S
C1009      C1010   1.409       .  A
C1009      C1014   1.398       .  A
C1009      H1015   1.083       .  S
C1010      C1011   1.403       .  A
C1011      C1012   1.398       .  A
C1011      H1016   1.083       .  S
C1012      C1013   1.410       .  A
C1012      H1017   1.083   1_455  S
C1013      C1014   1.403       .  A
C1014      H1018   1.083       .  S
C1019      C1020   1.404       .  A
C1019      C1024   1.398       .  A
C1019      H1025   1.083       .  S
C1020      C1021   1.409       .  A
C1021      C1022   1.401       .  A
C1021      H1026   1.083   1_565  S
C1022      C1023   1.405       .  A
C1022      H1027   1.083       .  S
C1023      C1024   1.408       .  A
C1024      H1028   1.083       .  S
C1029      C1030   1.404       .  A
C1029      C1034   1.404       .  A
C1029      H1035   1.083       .  S
C1030      C1031   1.401       .  A
C1031      C1032   1.392       .  A
C1031      H1036   1.084       .  S
C1032      C1033   1.404       .  A
C1032      H1037   1.083       .  S
C1033      C1034   1.406       .  A
C1034      H1038   1.083       .  S
C1039      C1040   1.403       .  A
C1039      C1044   1.397       .  A
C1039      H1045   1.083       .  S
C1040      C1041   1.408       .  A
C1041      C1042   1.398       .  A
C1041      H1046   1.083       .  S
C1042      C1043   1.404       .  A
C1042      H1047   1.083       .  S
C1043      C1044   1.409       .  A
C1044      H1048   1.083       .  S
C1049      C1050   1.404       .  A
C1049      C1054   1.400       .  A
C1049      H1055   1.083       .  S
C1050      C1051   1.410       .  A
C1051      C1052   1.400       .  A
C1051      H1056   1.083       .  S
C1052      C1053   1.404       .  A
C1052      H1057   1.083       .  S
C1053      C1054   1.410       .  A
C1054      H1058   1.083       .  S
C1059      C1060   1.407       .  A
C1059      C1064   1.402       .  A
C1059      H1065   1.083       .  S
C1060      C1061   1.406       .  A
C1061      C1062   1.400       .  A
C1061      H1066   1.083       .  S
C1062      C1063   1.408       .  A
C1062      H1067   1.083       .  S
C1063      C1064   1.408       .  A
C1064      H1068   1.083       .  S
C1069      C1070   1.407       .  A
C1069      C1074   1.401       .  A
C1069      H1075   1.083       .  S
C1070      C1071   1.405       .  A
C1071      C1072   1.398       .  A
C1071      H1076   1.083       .  S
C1072      C1073   1.407       .  A
C1072      H1077   1.083       .  S
C1073      C1074   1.407       .  A
C1074      H1078   1.083       .  S
C1079      C1080   1.400       .  A
C1079      C1084   1.392       .  A
C1079      H1085   1.084       .  S
C1080      C1081   1.404       .  A
C1081      C1082   1.405       .  A
C1081      H1086   1.083       .  S
C1082      C1083   1.407       .  A
C1082      H1087   1.083       .  S
C1083      C1084   1.404       .  A
C1084      H1088   1.083       .  S
C1089      C1090   1.405       .  A
C1089      C1094   1.403       .  A
C1089      H1095   1.083       .  S
C1090      C1091   1.403       .  A
C1091      C1092   1.391       .  A
C1091      H1096   1.083       .  S
C1092      C1093   1.400       .  A
C1092      H1097   1.084       .  S
C1093      C1094   1.404       .  A
C1094      H1098   1.083       .  S
C1099      C1100   1.404       .  A
C1099      C1104   1.399       .  A
C1099      H1105   1.083       .  S
C1100      C1101   1.410       .  A
C1101      C1102   1.399       .  A
C1101      H1106   1.083       .  S
C1102      C1103   1.403       .  A
C1102      H1107   1.083       .  S
C1103      C1104   1.409       .  A
C1104      H1108   1.083       .  S
C1109      C1110   1.406       .  A
C1109      C1114   1.399       .  A
C1109      H1115   1.083       .  S
C1110      C1111   1.407       .  A
C1111      C1112   1.401       .  A
C1111      H1116   1.083       .  S
C1112      C1113   1.408       .  A
C1112      H1117   1.083       .  S
C1113      C1114   1.407       .  A
C1114      H1118   1.083       .  S
C1119      C1120   1.410       .  A
C1119      C1124   1.400       .  A
C1119      H1125   1.083       .  S
C1120      C1121   1.404       .  A
C1121      C1122   1.399       .  A
C1121      H1126   1.083       .  S
C1122      C1123   1.409       .  A
C1122      H1127   1.083       .  S
C1123      C1124   1.404       .  A
C1124      H1128   1.083       .  S
C1129      C1130   1.401       .  A
C1129      C1134   1.393       .  A
C1129      H1135   1.083       .  S
C1130      C1131   1.403       .  A
C1131      C1132   1.404       .  A
C1131      H1136   1.083       .  S
C1132      C1133   1.407       .  A
C1132      H1137   1.083       .  S
C1133      C1134   1.405       .  A
C1134      H1138   1.083       .  S
C1139      C1140   1.409       .  A
C1139      C1144   1.400       .  A
C1139      H1145   1.083       .  S
C1140      C1141   1.407       .  A
C1141      C1142   1.401       .  A
C1141      H1146   1.083       .  S
C1142      C1143   1.407       .  A
C1142      H1147   1.083       .  S
C1143      C1144   1.405       .  A
C1144      H1148   1.083       .  S
C1149      C1150   1.406       .  A
C1149      C1154   1.403       .  A
C1149      H1155   1.083       .  S
C1150      C1151   1.404       .  A
C1151      C1152   1.393       .  A
C1151      H1156   1.083       .  S
C1152      C1153   1.402       .  A
C1152      H1157   1.084       .  S
C1153      C1154   1.403       .  A
C1154      H1158   1.083       .  S
C1159      C1160   1.404       .  A
C1159      C1164   1.399       .  A
C1159      H1165   1.083       .  S
C1160      C1161   1.409       .  A
C1161      C1162   1.399       .  A
C1161      H1166   1.083       .  S
C1162      C1163   1.405       .  A
C1162      H1167   1.083       .  S
C1163      C1164   1.409       .  A
C1164      H1168   1.083       .  S
C1169      C1170   1.403       .  A
C1169      C1174   1.396       .  A
C1169      H1175   1.083       .  S
C1170      C1171   1.409       .  A
C1171      C1172   1.400       .  A
C1171      H1176   1.083   1_545  S
C1172      C1173   1.404       .  A
C1172      H1177   1.083       .  S
C1173      C1174   1.409       .  A
C1174      H1178   1.083       .  S
C1179      C1180   1.403       .  A
C1179      C1184   1.401       .  A
C1179      H1185   1.083       .  S
C1180      C1181   1.401       .  A
C1181      C1182   1.392       .  A
C1181      H1186   1.084       .  S
C1182      C1183   1.404       .  A
C1182      H1187   1.084       .  S
C1183      C1184   1.406       .  A
C1184      H1188   1.083       .  S
C1189      C1190   1.406       .  A
C1189      C1194   1.399       .  A
C1189      H1195   1.083       .  S
C1190      C1191   1.407       .  A
C1191      C1192   1.401       .  A
C1191      H1196   1.083       .  S
C1192      C1193   1.407       .  A
C1192      H1197   1.083       .  S
C1193      C1194   1.407       .  A
C1194      H1198   1.083       .  S
C1199      C1200   1.407       .  A
C1199      C1204   1.401       .  A
C1199      H1205   1.083       .  S
C1200      C1201   1.408       .  A
C1201      C1202   1.398       .  A
C1201      H1206   1.083       .  S
C1202      C1203   1.405       .  A
C1202      H1207   1.083       .  S
C1203      C1204   1.407       .  A
C1204      H1208   1.083       .  S
C1209      C1210   1.403       .  A
C1209      C1214   1.394       .  A
C1209      H1215   1.084       .  S
C1210      C1211   1.405       .  A
C1211      C1212   1.401       .  A
C1211      H1216   1.083       .  S
C1212      C1213   1.403       .  A
C1212      H1217   1.083       .  S
C1213      C1214   1.401       .  A
C1214      H1218   1.084       .  S
C1219      C1220   1.409       .  A
C1219      C1224   1.399       .  A
C1219      H1225   1.083       .  S
C1220      C1221   1.404       .  A
C1221      C1222   1.400       .  A
C1221      H1226   1.083       .  S
C1222      C1223   1.409       .  A
C1222      H1227   1.083   1_565  S
C1223      C1224   1.405       .  A
C1224      H1228   1.083       .  S
C1229      C1230   1.404       .  A
C1229      C1234   1.403       .  A
C1229      H1235   1.083       .  S
C1230      C1231   1.401       .  A
C1231      C1232   1.392       .  A
C1231      H1236   1.084       .  S
C1232      C1233   1.404       .  A
C1232      H1237   1.083       .  S
C1233      C1234   1.406       .  A
C1234      H1238   1.083       .  S
C1239      C1240   1.409       .  A
C1239      C1244   1.402       .  A
C1239      H1245   1.083       .  S
C1240      C1241   1.404       .  A
C1241      C1242   1.399       .  A
C1241      H1246   1.083       .  S
C1242      C1243   1.410       .  A
C1242      H1247   1.083       .  S
C1243      C1244   1.405       .  A
C1244      H1248   1.083       .  S
