geometry optimzed in LAMMPS
_audit_creation_date              2020-11-30 
_audit_creation_method            'lammps2cif' 
_symmetry_space_group_name_H-M    'P1' 
_symmetry_Int_Tables_number       1 
_symmetry_cell_setting            triclinic 
loop_ 
_symmetry_equiv_pos_as_xyz 
  x,y,z 
_cell_length_a                    31.95858861 
_cell_length_b                    31.667090124307062 
_cell_length_c                    31.881128007693878 
_cell_angle_alpha                 89.64806470373466 
_cell_angle_beta                  90.20426322696412 
_cell_angle_gamma                 90.44902831795007 
loop_ 
_atom_site_label 
_atom_site_type_symbol 
_atom_site_fract_x 
_atom_site_fract_y 
_atom_site_fract_z 
_atom_site_charge 
C1          C  0.14324973  0.70834774  0.33838512     0.86500
C2          C  0.09922257  0.72477708  0.33483225    -0.53700
C3          C  0.08979948  0.75914297  0.35759316     0.09400
C4          C  0.12632244  0.77328320  0.38620894     0.20400
C5          C  0.17219310  0.74713475  0.33052725    -0.54500
C6          C  0.16453501  0.78089820  0.35652880     0.09500
C7          C  0.14800094  0.69956933  0.38605143    -0.54000
C8          C  0.13827415  0.73309705  0.41145411     0.10100
H9          H  0.07631346  0.70993690  0.31488591     0.14600
H10         H  0.11860348  0.80087655  0.40600270     0.00300
H11         H  0.19985537  0.74546971  0.31095373     0.14900
H12         H  0.15485424  0.66880681  0.39923388     0.14700
C13         C  0.69550380  0.15140623  0.71270075     0.86500
C14         C  0.67885747  0.15852014  0.66755586    -0.53700
C15         C  0.70845466  0.15399883  0.63647154     0.09400
C16         C  0.75243514  0.14513191  0.65385465     0.20400
C17         C  0.71643990  0.10763418  0.71047390    -0.54500
C18         C  0.74565210  0.10379688  0.67953113     0.09500
C19         C  0.73224016  0.18218084  0.71700022    -0.54000
C20         C  0.76151078  0.18120481  0.68593394     0.10100
H21         H  0.64563160  0.16094405  0.66073336     0.14600
H22         H  0.77627825  0.14227016  0.62882428     0.00300
H23         H  0.70612968  0.08075053  0.72868049     0.14900
H24         H  0.73581118  0.20214607  0.74392304     0.14700
C25         C  0.29840342  0.15669381  0.73579360     0.86500
C26         C  0.29526834  0.11329505  0.75778040    -0.53700
C27         C  0.32253142  0.10792067  0.79033050     0.09400
C28         C  0.35084528  0.14707602  0.79877962     0.20400
C29         C  0.29302877  0.18819719  0.77174189    -0.54500
C30         C  0.32096457  0.18530262  0.80447572     0.09500
C31         C  0.34494620  0.16075983  0.72372812    -0.54000
C32         C  0.37278926  0.15466522  0.75640281     0.10100
H33         H  0.27585817  0.08755004  0.74630316     0.14600
H34         H  0.37315859  0.14263284  0.82521846     0.00300
H35         H  0.26792299  0.21007665  0.77096503     0.14900
H36         H  0.35483324  0.16310363  0.69122851     0.14700
C37         C  0.16694313  0.64198003  0.79874819     0.86500
C38         C  0.17547671  0.60791853  0.76538587    -0.53700
C39         C  0.14499200  0.60405218  0.73563870     0.09400
C40         C  0.11171466  0.63951731  0.73762586     0.20400
C41         C  0.16323529  0.68311465  0.77273423    -0.54500
C42         C  0.13518005  0.68233273  0.73948121     0.09500
C43         C  0.12161702  0.63238780  0.81261865    -0.54000
C44         C  0.09256031  0.63326483  0.78127422     0.10100
H45         H  0.19941304  0.58407507  0.76853943     0.14600
H46         H  0.08843658  0.63789180  0.71169076     0.00300
H47         H  0.18223093  0.70988177  0.78098297     0.14900
H48         H  0.11211650  0.62885622  0.84503399     0.14700
C49         C  0.63035640  0.78505473  0.20397898     0.86500
C50         C  0.59288801  0.75432304  0.20960769    -0.53700
C51         C  0.58970202  0.72391706  0.18022590     0.09400
C52         C  0.62739156  0.72285846  0.14985321     0.20400
C53         C  0.66888737  0.75563256  0.20492228    -0.54500
C54         C  0.66655558  0.72130367  0.17931581     0.09500
C55         C  0.62754504  0.79915431  0.15722696    -0.54000
C56         C  0.62794785  0.76719406  0.12842518     0.10100
H57         H  0.56855153  0.75708412  0.23288513     0.14600
H58         H  0.62582906  0.69643762  0.12712406     0.00300
H59         H  0.69689510  0.76269306  0.22258493     0.14900
H60         H  0.62833075  0.83178105  0.14697175     0.14700
C61         C  0.69777086  0.31105496  0.17653333     0.86500
C62         C  0.73167520  0.30150589  0.20933255    -0.53700
C63         C  0.76561478  0.32870859  0.20937871     0.09400
C64         C  0.76215318  0.36302392  0.17369560     0.20400
C65         C  0.68702734  0.35838336  0.18426916    -0.54500
C66         C  0.72060352  0.38610861  0.18199942     0.09500
C67         C  0.72055223  0.31186873  0.13438229    -0.54000
C68         C  0.75363819  0.33880260  0.13213279     0.10100
H69         H  0.72750034  0.27584703  0.23153974     0.14600
H70         H  0.78921976  0.38501927  0.17145943     0.00300
H71         H  0.65529705  0.36976827  0.18720288     0.14900
H72         H  0.70825895  0.29621018  0.10676825     0.14700
C73         C  0.12909401  0.71899050  0.70666691     0.86500
C74         C  0.08429999  0.73631054  0.70045151    -0.53700
C75         C  0.08129724  0.76839997  0.67132507     0.09400
C76         C  0.12437975  0.78051305  0.65099836     0.20400
C77         C  0.14247640  0.70694679  0.66147557    -0.54500
C78         C  0.13817247  0.73839607  0.63155277     0.09500
C79         C  0.15457554  0.75838837  0.71724529    -0.54000
C80         C  0.15608489  0.78950549  0.68788584     0.10100
H81         H  0.05699872  0.72285074  0.71549604     0.14600
H82         H  0.12235839  0.80648716  0.62755029     0.00300
H83         H  0.14815873  0.67432239  0.65301699     0.14900
H84         H  0.16964546  0.76231535  0.74687252     0.14700
C85         C  0.71690356  0.14314642  0.42092118     0.86500
C86         C  0.68305055  0.14838632  0.38861910    -0.53700
C87         C  0.69610173  0.15251001  0.34738617     0.09400
C88         C  0.74542087  0.14908831  0.34377165     0.20400
C89         C  0.74143856  0.10448863  0.40596168    -0.54500
C90         C  0.75440448  0.10627570  0.36564930     0.09500
C91         C  0.74385850  0.18142320  0.41297598    -0.54000
C92         C  0.76501499  0.18291783  0.37482030     0.10100
H93         H  0.65132660  0.14806452  0.39977234     0.14600
H94         H  0.75729553  0.15128552  0.31115702     0.00300
H95         H  0.74533534  0.07594338  0.42461669     0.14900
H96         H  0.74889117  0.20336252  0.43855797     0.14700
C97         C  0.62727108  0.18171581  0.81188402     0.86500
C98         C  0.63533528  0.13668677  0.82970267    -0.53700
C99         C  0.63613925  0.10489657  0.80012290     0.09400
C100        C  0.62762312  0.12108552  0.75533964     0.20400
C101        C  0.66086703  0.18719487  0.77766550    -0.54500
C102        C  0.66207564  0.15522037  0.74787142     0.09500
C103        C  0.58654523  0.17703569  0.78604045    -0.54000
C104        C  0.58575931  0.14536362  0.75827050     0.10100
H105        H  0.64212230  0.13095044  0.86263626     0.14600
H106        H  0.62721926  0.09557541  0.73157921     0.00300
H107        H  0.68110904  0.21469505  0.77783721     0.14900
H108        H  0.55878821  0.19592526  0.78853537     0.14700
C109        C  0.12667328  0.31323864  0.74607649     0.86500
C110        C  0.13789593  0.35682950  0.72662694    -0.53700
C111        C  0.13506555  0.39051286  0.75358641     0.09400
C112        C  0.12375499  0.37685411  0.79855390     0.20400
C113        C  0.15568982  0.30922773  0.78473763    -0.54500
C114        C  0.15641745  0.34299190  0.81166476     0.09500
C115        C  0.08315610  0.31992032  0.76553833    -0.54000
C116        C  0.08145388  0.35333262  0.79257980     0.10100
H117        H  0.14149730  0.36108496  0.69299170     0.14600
H118        H  0.12207502  0.40378005  0.82064628     0.00300
H119        H  0.17348060  0.28116312  0.79131308     0.14900
H120        H  0.05572461  0.30142417  0.75694502     0.14700
C121        C  0.30269699  0.70842864  0.18146933     0.86500
C122        C  0.31542488  0.72512736  0.13740808    -0.53700
C123        C  0.34400273  0.75628316  0.13644012     0.09400
C124        C  0.36274387  0.76595022  0.18053384     0.20400
C125        C  0.34604883  0.69260134  0.19814759    -0.54500
C126        C  0.37844349  0.72223999  0.19484627     0.09500
C127        C  0.29383237  0.74766196  0.20736766    -0.54000
C128        C  0.32569750  0.77606858  0.21070349     0.10100
H129        H  0.30532359  0.71094172  0.10806298     0.14600
H130        H  0.38782613  0.79036364  0.18012364     0.00300
H131        H  0.35242079  0.65948369  0.20370519     0.14900
H132        H  0.26465166  0.75178215  0.22366838     0.14700
C133        C  0.70172481  0.68821214  0.17555617     0.86500
C134        C  0.68906000  0.64112928  0.18123475    -0.53700
C135        C  0.72028869  0.61272021  0.17179706     0.09400
C136        C  0.76126451  0.63483591  0.15744361     0.20400
C137        C  0.74151618  0.69322645  0.20320652    -0.54500
C138        C  0.77280996  0.66509556  0.19478111     0.09500
C139        C  0.71750754  0.69097907  0.13150805    -0.54000
C140        C  0.74735498  0.66351471  0.12026243     0.10100
H141        H  0.65743079  0.63128036  0.18917352     0.14600
H142        H  0.78666088  0.61272432  0.14906905     0.00300
H143        H  0.74232338  0.71196597  0.23154910     0.14900
H144        H  0.70606479  0.71452918  0.11056325     0.14700
C145        C  0.32972345  0.77834206  0.84565344     0.86500
C146        C  0.33152823  0.79127040  0.89243522    -0.53700
C147        C  0.33369961  0.75856267  0.92101209     0.09400
C148        C  0.33509028  0.71479197  0.89963891     0.20400
C149        C  0.36826324  0.74891921  0.84025064    -0.54500
C150        C  0.37297389  0.71868590  0.86990321     0.09500
C151        C  0.29256941  0.74722895  0.84438773    -0.54000
C152        C  0.29582166  0.71224630  0.86991515     0.10100
H153        H  0.33479537  0.82374757  0.90245807     0.14600
H154        H  0.33778353  0.68793976  0.92201309     0.00300
H155        H  0.39223178  0.75214756  0.81658272     0.14900
H156        H  0.26512220  0.75262915  0.82529619     0.14700
C157        C  0.76900384  0.64010021  0.83129210     0.86500
C158        C  0.75007175  0.59553169  0.83530727    -0.53700
C159        C  0.71921241  0.59224018  0.86465001     0.09400
C160        C  0.70951884  0.63364164  0.88770833     0.20400
C161        C  0.73108213  0.66913833  0.82286890    -0.54500
C162        C  0.69956111  0.66696081  0.85286885     0.09500
C163        C  0.78208861  0.65160661  0.87665337    -0.54000
C164        C  0.75211007  0.64682706  0.90629811     0.10100
H165        H  0.76225350  0.56834710  0.81899362     0.14600
H166        H  0.68470927  0.63027524  0.91187159     0.00300
H167        H  0.73127114  0.69067736  0.79642792     0.14900
H168        H  0.81201796  0.66521776  0.88537832     0.14700
C169        C  0.83641263  0.31307509  0.74451580     0.86500
C170        C  0.87955239  0.32668785  0.76164789    -0.53700
C171        C  0.87850580  0.35851290  0.79007158     0.09400
C172        C  0.83384054  0.37585232  0.79839541     0.20400
C173        C  0.81010990  0.30396174  0.78452108    -0.54500
C174        C  0.80577481  0.33711251  0.81150790     0.09500
C175        C  0.81781212  0.35483202  0.72719821    -0.54000
C176        C  0.81820520  0.38807114  0.75435492     0.10100
H177        H  0.90907231  0.31383241  0.75136018     0.14600
H178        H  0.83353622  0.40245480  0.82092369     0.00300
H179        H  0.79481948  0.27396959  0.79050078     0.14900
H180        H  0.80505398  0.35860184  0.69588761     0.14700
C181        C  0.63370115  0.80867780  0.80709403     0.86500
C182        C  0.58898707  0.81494527  0.79178493    -0.53700
C183        C  0.58472640  0.84806115  0.76468010     0.09400
C184        C  0.62651117  0.87198904  0.75399264     0.20400
C185        C  0.65846707  0.80427194  0.76560167    -0.54500
C186        C  0.65818347  0.83784023  0.73855564     0.09500
C187        C  0.64658139  0.85223474  0.82512664    -0.54000
C188        C  0.64194009  0.88565208  0.79766272     0.10100
H189        H  0.56270158  0.79575631  0.80236124     0.14600
H190        H  0.62263343  0.89882861  0.73175687     0.00300
H191        H  0.67240402  0.77509644  0.75600671     0.14900
H192        H  0.65824712  0.85619743  0.85691076     0.14700
C193        C  0.77259755  0.81955455  0.35953024     0.86500
C194        C  0.73430674  0.81326544  0.33065474    -0.53700
C195        C  0.70212463  0.84234618  0.33512129     0.09400
C196        C  0.71241927  0.87527839  0.36992133     0.20400
C197        C  0.78535298  0.86610229  0.35140563    -0.54500
C198        C  0.75480177  0.89526483  0.35709188     0.09500
C199        C  0.75446375  0.82019126  0.40396710    -0.54000
C200        C  0.72342584  0.84876351  0.40990777     0.10100
H201        H  0.73466664  0.78868582  0.30721867     0.14600
H202        H  0.68754033  0.89897857  0.37487216     0.00300
H203        H  0.81567733  0.87655429  0.34053821     0.14900
H204        H  0.76729704  0.80196323  0.42960694     0.14700
C205        C  0.82888175  0.71226366  0.69748533     0.86500
C206        C  0.87144581  0.73511294  0.68838352    -0.53700
C207        C  0.87073527  0.76696310  0.66033535     0.09400
C208        C  0.82665029  0.77361705  0.64074036     0.20400
C209        C  0.79852857  0.74797387  0.70764928    -0.54500
C210        C  0.79576919  0.78030840  0.67822089     0.09500
C211        C  0.81607831  0.69764060  0.65331152    -0.54000
C212        C  0.81562774  0.72934370  0.62326300     0.10100
H213        H  0.90187276  0.72381357  0.69838251     0.14600
H214        H  0.82599857  0.79878051  0.61639184     0.00300
H215        H  0.78027092  0.74603194  0.73607502     0.14900
H216        H  0.80961133  0.66477043  0.64600559     0.14700
C217        C  0.66458431  0.70073373  0.85901555     0.86500
C218        C  0.66822439  0.71861969  0.90275618    -0.53700
C219        C  0.64131416  0.74974169  0.91352610     0.09400
C220        C  0.61079924  0.76089322  0.87690903     0.20400
C221        C  0.61804444  0.68674951  0.85624007    -0.54500
C222        C  0.58947927  0.71793132  0.86624087     0.09500
C223        C  0.66776986  0.73981459  0.83091807    -0.54000
C224        C  0.63887242  0.77084329  0.83783021     0.10100
H225        H  0.69146853  0.70724384  0.92400377     0.14600
H226        H  0.58848554  0.78639817  0.88453384     0.00300
H227        H  0.60890483  0.65406868  0.85126062     0.14900
H228        H  0.69251207  0.74317538  0.80848814     0.14700
C229        C  0.76974793  0.33893067  0.84437820     0.86500
C230        C  0.74833926  0.38245650  0.84386201    -0.53700
C231        C  0.71812742  0.38695834  0.87336240     0.09400
C232        C  0.71062523  0.34751064  0.90052726     0.20400
C233        C  0.78462086  0.33345848  0.89016597    -0.54500
C234        C  0.75412353  0.33899353  0.92003933     0.09500
C235        C  0.73260818  0.30674600  0.83998824    -0.54000
C236        C  0.70125226  0.31132894  0.86901726     0.10100
H237        H  0.75828730  0.40867740  0.82421385     0.14600
H238        H  0.68578684  0.35163845  0.92443788     0.00300
H239        H  0.81760582  0.33123380  0.89815201     0.14900
H240        H  0.73021296  0.28338053  0.81537156     0.14700
C241        C  0.88056029  0.63913829  0.78031962     0.86500
C242        C  0.84744648  0.64116902  0.81435049    -0.53700
C243        C  0.80640005  0.64267374  0.80008437     0.09400
C244        C  0.80411932  0.64005760  0.75053254     0.20400
C245        C  0.86937325  0.59968750  0.75524939    -0.54500
C246        C  0.82870736  0.59855061  0.74175187     0.09500
C247        C  0.86968235  0.67695739  0.75363102    -0.54000
C248        C  0.83312906  0.67712346  0.73277863     0.10100
H249        H  0.85700590  0.63877224  0.84679813     0.14600
H250        H  0.77178848  0.63979014  0.73769393     0.00300
H251        H  0.89046408  0.57315950  0.75222752     0.14900
H252        H  0.88600209  0.70657429  0.75902341     0.14700
C253        C  0.32899145  0.81686850  0.81189716     0.86500
C254        C  0.31439049  0.86172024  0.82612122    -0.53700
C255        C  0.31868282  0.89322786  0.79590200     0.09400
C256        C  0.33281957  0.87606294  0.75340826     0.20400
C257        C  0.30221109  0.80833443  0.77204405    -0.54500
C258        C  0.30080103  0.84044606  0.74301676     0.09500
C259        C  0.37317115  0.82662853  0.79521039    -0.54000
C260        C  0.37529905  0.85516777  0.76402099     0.10100
H261        H  0.30770614  0.86943451  0.85843057     0.14600
H262        H  0.33515936  0.90070338  0.72854781     0.00300
H263        H  0.28474475  0.77948953  0.76735606     0.14900
H264        H  0.40199803  0.81638325  0.80990673     0.14700
C265        C  0.69297949  0.84252737  0.70359130     0.86500
C266        C  0.71308737  0.88661038  0.70250923    -0.53700
C267        C  0.74429748  0.89143812  0.67383301     0.09400
C268        C  0.75387685  0.85075428  0.64840102     0.20400
C269        C  0.67963832  0.83491249  0.65708819    -0.54500
C270        C  0.71156097  0.83996995  0.62790701     0.09500
C271        C  0.73081745  0.81263904  0.71002528    -0.54000
C272        C  0.76196726  0.81458382  0.68063697     0.10100
H273        H  0.70129789  0.91294504  0.72030084     0.14600
H274        H  0.77933928  0.85526081  0.62517347     0.00300
H275        H  0.64711888  0.83079469  0.64793976     0.14900
H276        H  0.73270576  0.79116590  0.73612864     0.14700
O277        O  0.77126903  0.62408557  0.55255614    -0.72900
O278        O  0.83600391  0.69254220  0.46941172    -0.73900
O279        O  0.82814630  0.68893943  0.56187569    -0.62500
O280        O  0.77681084  0.62775039  0.46577802    -0.71000
O281        O  0.72161341  0.67018487  0.46614567    -0.70500
O282        O  0.77822127  0.73714981  0.55788735    -0.61800
O283        O  0.78128486  0.73460215  0.46296570    -0.74300
O284        O  0.71956119  0.67064745  0.55453595    -0.73000
Cu285      Cu  0.80517940  0.65732359  0.51241283     1.04600
Cu286      Cu  0.74877520  0.70558459  0.51025268     1.04300
C287        C  0.73604118  0.63599858  0.56652043     0.93300
C288        C  0.81625893  0.72100431  0.44906345     0.92400
C289        C  0.80805528  0.71944078  0.57820296     0.84500
C290        C  0.74062385  0.63796972  0.45239222     0.90800
O291        O  0.76663333  0.44383830  0.64233264    -0.72900
O292        O  0.82813166  0.53742123  0.69845115    -0.73900
O293        O  0.82482561  0.44523663  0.70612413    -0.62500
O294        O  0.76805315  0.53222979  0.63525253    -0.71000
O295        O  0.71471415  0.53470156  0.67977656    -0.70500
O296        O  0.77506032  0.45039437  0.75413477    -0.61800
O297        O  0.77510985  0.54466128  0.74243046    -0.74300
O298        O  0.71536255  0.44457498  0.68931027    -0.73000
Cu299      Cu  0.79878176  0.48964406  0.66925816     1.04600
Cu300      Cu  0.74345188  0.49384624  0.71851499     1.04300
C301        C  0.73263757  0.42877684  0.65699902     0.93300
C302        C  0.80959164  0.55840040  0.72681768     0.92400
C303        C  0.80657535  0.43100599  0.73899633     0.84500
C304        C  0.73283944  0.54714439  0.64631956     0.90800
O305        O  0.66662440  0.16071321  0.57453578    -0.72900
O306        O  0.60391670  0.10319440  0.48380867    -0.73900
O307        O  0.60211773  0.10072012  0.57173371    -0.62500
O308        O  0.67079825  0.15877280  0.48079465    -0.71000
O309        O  0.71476249  0.10535972  0.48655411    -0.70500
O310        O  0.64570856  0.04630721  0.57179776    -0.61800
O311        O  0.64771050  0.04898910  0.48263756    -0.74300
O312        O  0.71029340  0.10672301  0.57796369    -0.73000
Cu313      Cu  0.63469174  0.13305964  0.52782970     1.04600
Cu314      Cu  0.68159570  0.07535283  0.52993472     1.04300
C315        C  0.69563109  0.14081713  0.59352730     0.93300
C316        C  0.61566410  0.06842450  0.46838540     0.92400
C317        C  0.61295689  0.06415244  0.58506815     0.84500
C318        C  0.70092699  0.13691710  0.46584153     0.90800
O319        O  0.42791476  0.04334706  0.70770133    -0.72900
O320        O  0.52577422  0.10084975  0.76101783    -0.73900
O321        O  0.43226965  0.10875491  0.76571602    -0.62500
O322        O  0.51682499  0.03901810  0.70112309    -0.71000
O323        O  0.51420424  0.08941852  0.65224921    -0.70500
O324        O  0.43504893  0.15796620  0.71593381    -0.61800
O325        O  0.52710599  0.15030191  0.71135027    -0.74300
O326        O  0.42779516  0.09372929  0.65869372    -0.73000
Cu327      Cu  0.47572302  0.07156424  0.73626487     1.04600
Cu328      Cu  0.47608444  0.12474663  0.68325169     1.04300
C329        C  0.41273235  0.05983727  0.67463395     0.93300
C330        C  0.54458537  0.13116778  0.74217704     0.92400
C331        C  0.41651658  0.14122839  0.74727162     0.84500
C332        C  0.52882627  0.05500351  0.66622501     0.90800
O333        O  0.14558738  0.54018310  0.69521158    -0.72900
O334        O  0.07190520  0.45028199  0.64721003    -0.73900
O335        O  0.07825658  0.53817275  0.64073179    -0.62500
O336        O  0.13927481  0.44674938  0.70251330    -0.71000
O337        O  0.09486142  0.45393672  0.75524428    -0.70500
O338        O  0.03145968  0.54401583  0.69183021    -0.61800
O339        O  0.02617012  0.45473960  0.69944320    -0.74300
O340        O  0.09890944  0.54629109  0.74624097    -0.73000
Cu341      Cu  0.11061725  0.49346550  0.66991894     1.04600
Cu342      Cu  0.06172598  0.49982228  0.72550763     1.04300
C343        C  0.13020033  0.56085148  0.72566949     0.93300
C344        C  0.03778225  0.43903228  0.66475862     0.92400
C345        C  0.04612237  0.55562674  0.65640847     0.84500
C346        C  0.12392843  0.43327671  0.73713751     0.90800
O347        O  0.09667274  0.74354389  0.56806333    -0.72900
O348        O  0.03700809  0.67819002  0.47471573    -0.73900
O349        O  0.03526887  0.67892041  0.56460648    -0.62500
O350        O  0.09741392  0.74330067  0.47368102    -0.71000
O351        O  0.14820309  0.69598249  0.47626015    -0.70500
O352        O  0.08685258  0.63220422  0.56537713    -0.61800
O353        O  0.08882400  0.63190510  0.47728762    -0.74300
O354        O  0.14684406  0.69566191  0.56985089    -0.73000
Cu355      Cu  0.06521820  0.71327803  0.52030633     1.04600
Cu356      Cu  0.11974289  0.66292426  0.52229209     1.04300
C357        C  0.12804293  0.72663925  0.58688201     0.93300
C358        C  0.05422981  0.64440103  0.46168578     0.92400
C359        C  0.05156703  0.64494869  0.57853750     0.84500
C360        C  0.12903089  0.72561004  0.45683323     0.90800
O361        O  0.52963497  0.94881516  0.69235684    -0.72900
O362        O  0.43498247  0.90090060  0.75976561    -0.73900
O363        O  0.52844020  0.89664719  0.76125971    -0.62500
O364        O  0.44131283  0.95253018  0.69056114    -0.71000
O365        O  0.44067610  0.89502273  0.65062196    -0.70500
O366        O  0.52462862  0.83880139  0.72216157    -0.61800
O367        O  0.43325337  0.84389609  0.71946071    -0.74300
O368        O  0.52766047  0.89080088  0.65324029    -0.73000
Cu369      Cu  0.48365639  0.92649156  0.72802381     1.04600
Cu370      Cu  0.48146521  0.86497563  0.68532060     1.04300
C371        C  0.54338278  0.92667039  0.66233929     0.93300
C372        C  0.41642409  0.86742251  0.74692438     0.92400
C373        C  0.54345944  0.86134662  0.74942001     0.84500
C374        C  0.42721842  0.93152567  0.65963492     0.90800
O375        O  0.61279998  0.89127818  0.56034646    -0.72900
O376        O  0.67758508  0.83719154  0.46846712    -0.73900
O377        O  0.67367863  0.83129324  0.56276685    -0.62500
O378        O  0.61452028  0.89661739  0.47315887    -0.71000
O379        O  0.65967320  0.95023236  0.47765941    -0.70500
O380        O  0.72191378  0.88193715  0.56553593    -0.61800
O381        O  0.72303853  0.89048378  0.47171827    -0.74300
O382        O  0.66024925  0.94285421  0.56598783    -0.73000
Cu383      Cu  0.64353488  0.86189177  0.51582112     1.04600
Cu384      Cu  0.69351797  0.91770314  0.52021270     1.04300
C385        C  0.62649167  0.92487199  0.57757936     0.93300
C386        C  0.70771613  0.85863692  0.45242517     0.92400
C387        C  0.70319423  0.85013332  0.58252630     0.84500
C388        C  0.62647698  0.93359093  0.46248002     0.90800
O389        O  0.68578465  0.45217145  0.19491848    -0.72900
O390        O  0.61769499  0.53942990  0.13506124    -0.73900
O391        O  0.62023885  0.45179633  0.13934931    -0.62500
O392        O  0.68385841  0.54806499  0.18966456    -0.71000
O393        O  0.72831880  0.54635956  0.13646873    -0.70500
O394        O  0.66315863  0.45034487  0.08454230    -0.61800
O395        O  0.66071954  0.53980596  0.08040116    -0.74300
O396        O  0.72969800  0.45042539  0.14133483    -0.73000
Cu397      Cu  0.65114544  0.49797390  0.16705091     1.04600
Cu398      Cu  0.69778973  0.49679276  0.10929347     1.04300
C399        C  0.71356865  0.43261285  0.17386218     0.93300
C400        C  0.62761411  0.55255946  0.09858959     0.92400
C401        C  0.63107585  0.43672656  0.10413081     0.84500
C402        C  0.71179492  0.56627537  0.16703416     0.90800
O403        O  0.52073755  0.66037710  0.07860879    -0.72900
O404        O  0.43715579  0.72540590  0.14807805    -0.73900
O405        O  0.52909281  0.72289746  0.13776897    -0.62500
O406        O  0.43152574  0.66399343  0.08606241    -0.71000
O407        O  0.43526482  0.61537234  0.13662685    -0.70500
O408        O  0.53116689  0.67701998  0.19072945    -0.61800
O409        O  0.43818876  0.67631775  0.19796716    -0.74300
O410        O  0.52345429  0.61434139  0.13151299    -0.73000
Cu411      Cu  0.47950405  0.69526341  0.11115304     1.04600
Cu412      Cu  0.48218303  0.64434753  0.16617505     1.04300
C413        C  0.53614358  0.62747141  0.09591367     0.93300
C414        C  0.42087787  0.70831185  0.18092472     0.92400
C415        C  0.54790349  0.70707449  0.16944250     0.84500
C416        C  0.41792766  0.63056788  0.10377307     0.90800
O417        O  0.43994312  0.66997369  0.97978484    -0.72900
O418        O  0.52799549  0.72770307  0.90839873    -0.73900
O419        O  0.43411916  0.72559409  0.91274698    -0.62500
O420        O  0.52910169  0.67005928  0.97527626    -0.71000
O421        O  0.52383993  0.61768276  0.92929731    -0.70500
O422        O  0.43342106  0.67471977  0.86514402    -0.61800
O423        O  0.52709393  0.67439006  0.86363052    -0.74300
O424        O  0.43636578  0.61920973  0.93193439    -0.73000
Cu425      Cu  0.48285291  0.70073640  0.94521793     1.04600
Cu426      Cu  0.48007512  0.64510903  0.89560314     1.04300
C427        C  0.42414775  0.63562099  0.96617957     0.93300
C428        C  0.54529560  0.70721601  0.87862882     0.92400
C429        C  0.41587671  0.70607538  0.88258726     0.84500
C430        C  0.54093382  0.63445670  0.96126595     0.90800
O431        O  0.60939984  0.44745294  0.93009158    -0.72900
O432        O  0.67074847  0.53511564  0.86404061    -0.73900
O433        O  0.67019758  0.44372735  0.86776732    -0.62500
O434        O  0.61004846  0.53594585  0.92651059    -0.71000
O435        O  0.65808355  0.53884453  0.97714677    -0.70500
O436        O  0.71762125  0.44529205  0.91893739    -0.61800
O437        O  0.71895279  0.53684645  0.91451142    -0.74300
O438        O  0.65653282  0.44934369  0.98160739    -0.73000
Cu439      Cu  0.63859375  0.49045545  0.89520380     1.04600
Cu440      Cu  0.68992804  0.49258309  0.94951160     1.04300
C441        C  0.62268370  0.43494126  0.96577835     0.93300
C442        C  0.70309937  0.55186678  0.88076195     0.92400
C443        C  0.70196242  0.42804202  0.88626962     0.84500
C444        C  0.62434864  0.55193377  0.96033296     0.90800
C445        C  0.59107010  0.15283939  0.28768942     0.86500
C446        C  0.60282388  0.19194770  0.26391076    -0.53700
C447        C  0.64038473  0.19043571  0.24282215     0.09400
C448        C  0.66904735  0.15393219  0.26280820     0.20400
C449        C  0.60500701  0.11374769  0.26201235    -0.54500
C450        C  0.64584336  0.11257112  0.25148791     0.09500
C451        C  0.62136375  0.15450329  0.32339099    -0.54000
C452        C  0.66324842  0.15542940  0.31247962     0.10100
H453        H  0.57958253  0.21646009  0.25943213     0.14600
H454        H  0.70220493  0.15479645  0.25261136     0.00300
H455        H  0.58508619  0.08651295  0.25588393     0.14900
H456        H  0.60843587  0.15486770  0.35449881     0.14700
C457        C  0.63164577  0.82232746  0.23774703     0.86500
C458        C  0.64770471  0.86630423  0.22258727    -0.53700
C459        C  0.64667909  0.89770773  0.25216402     0.09400
C460        C  0.63381729  0.88128593  0.29601886     0.20400
C461        C  0.65881647  0.81204561  0.27662514    -0.54500
C462        C  0.66413100  0.84348782  0.30530946     0.09500
C463        C  0.58886866  0.83270492  0.25617047    -0.54000
C464        C  0.58949400  0.86132565  0.28731553     0.10100
H465        H  0.65868670  0.87293379  0.19113194     0.14600
H466        H  0.63394666  0.90619068  0.32035947     0.00300
H467        H  0.67306449  0.78164659  0.28137372     0.14900
H468        H  0.55921983  0.82120836  0.24405243     0.14700
O469        O  0.70506661  0.95322273  0.89758387    -0.72900
O470        O  0.63660037  0.04209578  0.84273992    -0.73900
O471        O  0.63913015  0.94674421  0.84275360    -0.62500
O472        O  0.70649572  0.04151893  0.89442098    -0.71000
O473        O  0.75171599  0.03896016  0.84164830    -0.70500
O474        O  0.68073936  0.94966394  0.78733353    -0.61800
O475        O  0.68079834  0.04419177  0.78949671    -0.74300
O476        O  0.74849194  0.94826731  0.84359599    -0.73000
Cu477      Cu  0.66992846  0.99600366  0.87076594     1.04600
Cu478      Cu  0.71657922  0.99536278  0.81313539     1.04300
C479        C  0.73599139  0.93597001  0.87987721     0.93300
C480        C  0.65088289  0.06098794  0.81031599     0.92400
C481        C  0.65322674  0.93008392  0.80906247     0.84500
C482        C  0.73998203  0.05429504  0.87637369     0.90800
O483        O  0.62841563  0.80287535  0.96801580    -0.72900
O484        O  0.68720140  0.86894117  0.06080053    -0.73900
O485        O  0.69125803  0.86505847  0.97195012    -0.62500
O486        O  0.62349195  0.80785079  0.06356406    -0.71000
O487        O  0.67236379  0.75929068  0.06808542    -0.70500
O488        O  0.74175812  0.81760906  0.97800423    -0.61800
O489        O  0.73657602  0.82022071  0.06706099    -0.74300
O490        O  0.67857636  0.75608260  0.97743056    -0.73000
Cu491      Cu  0.65542376  0.83759509  0.01587809     1.04600
Cu492      Cu  0.70846642  0.78630293  0.02274215     1.04300
C493        C  0.64827232  0.77036761  0.95539571     0.93300
C494        C  0.72065846  0.85507624  0.07802639     0.92400
C495        C  0.72680890  0.85083810  0.96091660     0.84500
C496        C  0.64025694  0.77703877  0.08359339     0.90800
C497        C  0.58780192  0.26931117  0.88898839     0.86500
C498        C  0.58741993  0.23642725  0.85504604    -0.53700
C499        C  0.62493614  0.21776202  0.84578651     0.09400
C500        C  0.66109238  0.23560990  0.87504921     0.20400
C501        C  0.60663483  0.24688075  0.92724887    -0.54500
C502        C  0.64495658  0.23006751  0.92089029     0.09500
C503        C  0.62224180  0.30188518  0.87645893    -0.54000
C504        C  0.66132531  0.28466231  0.86987859     0.10100
H505        H  0.55735759  0.22770970  0.84244169     0.14600
H506        H  0.69208725  0.22100374  0.86976908     0.00300
H507        H  0.59171761  0.24602766  0.95783874     0.14900
H508        H  0.61698034  0.33571627  0.87641918     0.14700
O509        O  0.71739830  0.12093669  0.97067647    -0.72900
O510        O  0.65872114  0.17479772  0.06525882    -0.73900
O511        O  0.65317591  0.17841807  0.97428646    -0.62500
O512        O  0.72224919  0.11717771  0.05719946    -0.71000
O513        O  0.77069524  0.16805504  0.05901106    -0.70500
O514        O  0.70151185  0.22905165  0.97113224    -0.61800
O515        O  0.70588328  0.22648130  0.06601853    -0.74300
O516        O  0.76704940  0.17060931  0.96963297    -0.73000
Cu517      Cu  0.68628178  0.14635707  0.01687726     1.04600
Cu518      Cu  0.73783473  0.20092966  0.01640191     1.04300
C519        C  0.75089260  0.13658133  0.95547417     0.93300
C520        C  0.67448278  0.20743793  0.08278914     0.92400
C521        C  0.66808860  0.21153476  0.95679734     0.84500
C522        C  0.75613216  0.13264530  0.07167790     0.90800
O523        O  0.69666954  0.05588590  0.25133047    -0.72900
O524        O  0.74733295  0.95262646  0.19482117    -0.73900
O525        O  0.75812206  0.04136296  0.19086070    -0.62500
O526        O  0.68792586  0.96101975  0.25873170    -0.71000
O527        O  0.64050760  0.95920788  0.20800184    -0.70500
O528        O  0.70642015  0.04769509  0.14465641    -0.61800
O529        O  0.69879054  0.95999268  0.14533108    -0.74300
O530        O  0.64425045  0.05321244  0.20591439    -0.73000
Cu531      Cu  0.72391984  0.00286076  0.22616145     1.04600
Cu532      Cu  0.67041362  0.00541365  0.17476905     1.04300
C533        C  0.66370767  0.07236672  0.23528610     0.93300
C534        C  0.73036002  0.94106807  0.16035436     0.92400
C535        C  0.74338850  0.05683812  0.15727362     0.84500
C536        C  0.65743902  0.94236720  0.24052277     0.90800
C537        C  0.59113716  0.25157635  0.15389190     0.86500
C538        C  0.61996999  0.28827153  0.16931633    -0.53700
C539        C  0.66142573  0.27809656  0.17485465     0.09400
C540        C  0.66893413  0.23035584  0.16697817     0.20400
C541        C  0.61194966  0.23609647  0.11448201    -0.54500
C542        C  0.65252729  0.22460087  0.12005477     0.09500
C543        C  0.59639200  0.21520722  0.18348232    -0.54000
C544        C  0.63651399  0.20645574  0.19659036     0.10100
H545        H  0.60855133  0.32030672  0.17114519     0.14600
H546        H  0.70186896  0.22040155  0.17154906     0.00300
H547        H  0.59599284  0.23406795  0.08438059     0.14900
H548        H  0.56852778  0.19948883  0.19552477     0.14700
O549        O  0.39180565  0.86716076  0.06671514    -0.72900
O550        O  0.32740899  0.79830501  0.98424292    -0.73900
O551        O  0.33561998  0.80178458  0.07718249    -0.62500
O552        O  0.38393704  0.86424994  0.97992127    -0.71000
O553        O  0.43727151  0.81980881  0.97529547    -0.70500
O554        O  0.38929600  0.75785479  0.07609686    -0.61800
O555        O  0.37943202  0.75250148  0.98149279    -0.74300
O556        O  0.44626918  0.82392845  0.06410794    -0.73000
Cu557      Cu  0.35766168  0.83385636  0.02721215     1.04600
Cu558      Cu  0.41461073  0.78623355  0.02424016     1.04300
C559        C  0.42861812  0.85695317  0.07806455     0.93300
C560        C  0.34600610  0.76820647  0.96551656     0.92400
C561        C  0.35751927  0.77320141  0.09496140     0.84500
C562        C  0.41775561  0.85255488  0.96270530     0.90800
O563        O  0.37788550  0.95625402  0.89797076    -0.72900
O564        O  0.31628005  0.04870249  0.83745061    -0.73900
O565        O  0.31387333  0.95468698  0.83958821    -0.62500
O566        O  0.37920561  0.04522961  0.89751294    -0.71000
O567        O  0.42916593  0.04547638  0.84914673    -0.70500
O568        O  0.36196083  0.95482717  0.78954883    -0.61800
O569        O  0.36578850  0.04772665  0.78876474    -0.74300
O570        O  0.42675235  0.95512901  0.84847693    -0.73000
Cu571      Cu  0.34486410  0.00133049  0.86953461     1.04600
Cu572      Cu  0.39723516  0.00078536  0.81680814     1.04300
C573        C  0.41130341  0.94098492  0.88256665     0.93300
C574        C  0.33435880  0.06545753  0.80562443     0.92400
C575        C  0.33067083  0.93717273  0.80794598     0.84500
C576        C  0.41361676  0.05962650  0.88307959     0.90800
C577        C  0.30294826  0.83951373  0.31305814     0.86500
C578        C  0.30067136  0.88061796  0.28731847    -0.53700
C579        C  0.32841561  0.88305097  0.25504011     0.09400
C580        C  0.35698179  0.84462592  0.25101400     0.20400
C581        C  0.29841455  0.80445057  0.28030005    -0.54500
C582        C  0.32624744  0.80692152  0.24699076     0.09500
C583        C  0.34968852  0.83707946  0.32644953    -0.54000
C584        C  0.37819824  0.84083083  0.29442388     0.10100
H585        H  0.28186804  0.90727310  0.29646600     0.14600
H586        H  0.37972368  0.84761967  0.22491119     0.00300
H587        H  0.27494168  0.77989636  0.28412217     0.14900
H588        H  0.36012808  0.83766010  0.35875923     0.14700
O589        O  0.35684287  0.02308111  0.25835586    -0.72900
O590        O  0.43732075  0.95658828  0.19101036    -0.73900
O591        O  0.42173787  0.04388581  0.19973289    -0.62500
O592        O  0.37551783  0.93870390  0.24950770    -0.71000
O593        O  0.32027125  0.94081659  0.20707272    -0.70500
O594        O  0.37802398  0.03569811  0.14595296    -0.61800
O595        O  0.38438896  0.94724863  0.14638395    -0.74300
O596        O  0.31452709  0.03366423  0.20464582    -0.73000
Cu597      Cu  0.39931860  0.99078786  0.22658239     1.04600
Cu598      Cu  0.34709846  0.98884302  0.17423052     1.04300
C599        C  0.32910240  0.04549356  0.23996452     0.93300
C600        C  0.42185873  0.93970873  0.15824794     0.92400
C601        C  0.40807788  0.05537582  0.16388107     0.84500
C602        C  0.34116422  0.92317592  0.23656767     0.90800
O603        O  0.37749195  0.12753260  0.97914204    -0.72900
O604        O  0.31259575  0.18679801  0.06755568    -0.73900
O605        O  0.31465885  0.18694887  0.97536731    -0.62500
O606        O  0.37504728  0.12718356  0.06699019    -0.71000
O607        O  0.42485496  0.17657043  0.06947990    -0.70500
O608        O  0.36264204  0.23797475  0.97748088    -0.61800
O609        O  0.36124479  0.23714989  0.06951696    -0.74300
O610        O  0.42680750  0.17743977  0.97949822    -0.73000
Cu611      Cu  0.34303984  0.15579183  0.02218711     1.04600
Cu612      Cu  0.39529903  0.20951729  0.02396617     1.04300
C613        C  0.41183897  0.14281951  0.96536187     0.93300
C614        C  0.32965177  0.21836960  0.08592070     0.92400
C615        C  0.33182193  0.21967213  0.95915210     0.84500
C616        C  0.40864954  0.14207612  0.08279356     0.90800
C617        C  0.32435082  0.21905182  0.84003640     0.86500
C618        C  0.31658570  0.20243991  0.88489142    -0.53700
C619        C  0.32070985  0.23254363  0.91580313     0.09400
C620        C  0.33094283  0.27705867  0.89857131     0.20400
C621        C  0.29382040  0.25620758  0.83608880    -0.54500
C622        C  0.29534018  0.28683330  0.86628629     0.09500
C623        C  0.36782989  0.24004225  0.84242092    -0.54000
C624        C  0.37205304  0.26944855  0.87334666     0.10100
H625        H  0.31333302  0.16894530  0.89181213     0.14600
H626        H  0.33427536  0.30114523  0.92356763     0.00300
H627        H  0.27031225  0.25647961  0.81263871     0.14900
H628        H  0.39419874  0.22943683  0.82395814     0.14700
C629        C  0.12968204  0.59747892  0.28776785     0.86500
C630        C  0.14503963  0.62942516  0.32076980    -0.53700
C631        C  0.14569542  0.67082615  0.30740396     0.09400
C632        C  0.13187353  0.67501956  0.26016832     0.20400
C633        C  0.08697585  0.61447077  0.27335469    -0.54500
C634        C  0.08712205  0.65422761  0.25831536     0.09500
C635        C  0.15844081  0.60330022  0.25032143    -0.54000
C636        C  0.16063278  0.64382737  0.23579422     0.10100
H637        H  0.15038348  0.61976777  0.35290920     0.14600
H638        H  0.13297890  0.70789234  0.24786933     0.00300
H639        H  0.05809493  0.59610563  0.27440355     0.14900
H640        H  0.17688694  0.57781853  0.23747515     0.14700
C641        C  0.82355378  0.60111024  0.28349396     0.86500
C642        C  0.79651916  0.61210807  0.24559667    -0.53700
C643        C  0.80156129  0.65150825  0.22995552     0.09400
C644        C  0.83500459  0.67779579  0.25504236     0.20400
C645        C  0.86880978  0.60980354  0.26876655    -0.54500
C646        C  0.87569006  0.65015930  0.25430180     0.09500
C647        C  0.81446856  0.63643302  0.31626556    -0.54000
C648        C  0.82039379  0.67721713  0.30213664     0.10100
H649        H  0.77395721  0.59024011  0.23227541     0.14600
H650        H  0.83972223  0.71018785  0.24226677     0.00300
H651        H  0.89325312  0.58621050  0.27000103     0.14900
H652        H  0.80840712  0.62931353  0.34906092     0.14700
O653        O  0.94191172  0.73982542  0.83057748    -0.72900
O654        O  0.03518979  0.67861813  0.77494564    -0.73900
O655        O  0.94762601  0.67218646  0.77403620    -0.62500
O656        O  0.03009316  0.74570506  0.83128890    -0.71000
O657        O  0.03420318  0.69546289  0.88022261    -0.70500
O658        O  0.93992218  0.62887379  0.82819585    -0.61800
O659        O  0.03199062  0.62828388  0.82367844    -0.74300
O660        O  0.94696388  0.69475348  0.88412373    -0.73000
Cu661      Cu  0.98860554  0.71032532  0.80055354     1.04600
Cu662      Cu  0.98857780  0.65973072  0.85562269     1.04300
C663        C  0.93050635  0.72691965  0.86678660     0.93300
C664        C  0.05003085  0.64564695  0.79222977     0.92400
C665        C  0.92589394  0.64467185  0.79407547     0.84500
C666        C  0.04540991  0.73135585  0.86530741     0.90800
O667        O  0.85754375  0.69708251  0.96632914    -0.72900
O668        O  0.79450099  0.64570958  0.06334930    -0.73900
O669        O  0.79169129  0.63888401  0.96970107    -0.62500
O670        O  0.85873300  0.70391214  0.05434836    -0.71000
O671        O  0.81455008  0.75776278  0.05037075    -0.70500
O672        O  0.74911284  0.69345324  0.96439539    -0.61800
O673        O  0.75056955  0.69881001  0.05476239    -0.74300
O674        O  0.81461655  0.75190642  0.96176436    -0.73000
Cu675      Cu  0.82689367  0.66916155  0.01347457     1.04600
Cu676      Cu  0.78025302  0.72687595  0.00774440     1.04300
C677        C  0.84668348  0.73200225  0.94944103     0.93300
C678        C  0.76462231  0.66819707  0.07704149     0.92400
C679        C  0.76250622  0.65856195  0.95027859     0.84500
C680        C  0.84678431  0.74030585  0.06608699     0.90800
C681        C  0.19921691  0.64366047  0.83732669     0.86500
C682        C  0.18063486  0.65889549  0.87968515    -0.53700
C683        C  0.20770933  0.65733496  0.91311815     0.09400
C684        C  0.25199948  0.64455091  0.90130500     0.20400
C685        C  0.23820459  0.67246705  0.83147043    -0.54500
C686        C  0.26442231  0.67586552  0.86584118     0.09500
C687        C  0.21732159  0.60042120  0.84847491    -0.54000
C688        C  0.24498102  0.60082169  0.88067264     0.10100
H689        H  0.14923757  0.67102035  0.88335045     0.14600
H690        H  0.27391005  0.64420694  0.92841398     0.00300
H691        H  0.24381803  0.69007275  0.80282468     0.14900
H692        H  0.20701947  0.57088337  0.83469399     0.14700
O693        O  0.10057830  0.71656939  0.05847156    -0.72900
O694        O  0.16360943  0.65166001  0.97317535    -0.73900
O695        O  0.15874806  0.65296563  0.06746182    -0.62500
O696        O  0.10383685  0.71327297  0.97080506    -0.71000
O697        O  0.15179444  0.76458836  0.96825072    -0.75300
O698        O  0.20667315  0.70356317  0.06307526    -0.61800
O699        O  0.21210014  0.70237453  0.97200081    -0.74300
O700        O  0.14866412  0.76780906  0.05738460    -0.73000
Cu701      Cu  0.13024682  0.68156844  0.01745651     1.04600
Cu702      Cu  0.18192614  0.73596097  0.01535787     1.04300
C703        C  0.11486374  0.75181475  0.07153019     0.93300
C704        C  0.19494745  0.66992626  0.95562873     0.92400
C705        C  0.18978463  0.67272353  0.08344554     0.84500
C706        C  0.11876712  0.74682942  0.95417929     0.90800
O707        O  0.02973163  0.65074921  0.20991019    -0.72900
O708        O  0.93891524  0.70626855  0.14388498    -0.73900
O709        O  0.02605002  0.71067276  0.14583553    -0.62500
O710        O  0.93632670  0.64607881  0.20865550    -0.71000
O711        O  0.93397646  0.69973130  0.25245367    -0.70500
O712        O  0.02380925  0.76422056  0.19056314    -0.61800
O713        O  0.93613794  0.76005859  0.18830574    -0.74300
O714        O  0.02954964  0.70418931  0.25420309    -0.73000
Cu715      Cu  0.98288690  0.67635993  0.17588431     1.04600
Cu716      Cu  0.98075668  0.73335360  0.22370366     1.04300
C717        C  0.04725519  0.67114286  0.23979173     0.93300
C718        C  0.92416024  0.74178557  0.15481835     0.92400
C719        C  0.03811575  0.74726589  0.15765730     0.84500
C720        C  0.91771200  0.66554764  0.23823871     0.90800
C721        C  0.26199571  0.67803977  0.17881216     0.86500
C722        C  0.23726282  0.69006050  0.13962523    -0.53700
C723        C  0.20707601  0.66357713  0.12644913     0.09400
C724        C  0.19605613  0.63018662  0.16083935     0.20400
C725        C  0.22698129  0.67920927  0.21253147    -0.54500
C726        C  0.19199224  0.65516987  0.20292280     0.09500
C727        C  0.27101047  0.63052460  0.17510840    -0.54000
C728        C  0.23654547  0.60534147  0.16803306     0.10100
H729        H  0.24062074  0.72093534  0.12502196     0.14600
H730        H  0.16859640  0.60990782  0.15321200     0.00300
H731        H  0.23057478  0.69418094  0.24285578     0.14900
H732        H  0.30197203  0.61734212  0.17883134     0.14700
O733        O  0.85561025  0.40641553  0.98220723    -0.72900
O734        O  0.80041738  0.33853122  0.07335290    -0.73900
O735        O  0.79936278  0.33857927  0.98028758    -0.62500
O736        O  0.85709490  0.40474182  0.06969086    -0.71000
O737        O  0.80642747  0.45242100  0.07160899    -0.70500
O738        O  0.74738392  0.38452603  0.98021984    -0.61800
O739        O  0.74910546  0.38540576  0.07354048    -0.74300
O740        O  0.80445698  0.45363511  0.98232813    -0.73000
Cu741      Cu  0.82949349  0.37018636  0.02626861     1.04600
Cu742      Cu  0.77449535  0.42021542  0.02685201     1.04300
C743        C  0.83958464  0.44078781  0.96888974     0.93300
C744        C  0.76819613  0.35440585  0.09070591     0.92400
C745        C  0.76640507  0.35349187  0.96312048     0.84500
C746        C  0.84143917  0.43818929  0.08475462     0.90800
O747        O  0.02766250  0.40515883  0.79515542    -0.72900
O748        O  0.93940706  0.46937345  0.85831715    -0.73900
O749        O  0.02896606  0.46600431  0.85922088    -0.62500
O750        O  0.93481271  0.40908015  0.79444578    -0.71000
O751        O  0.93358516  0.35625171  0.84054025    -0.70500
O752        O  0.02597758  0.41239931  0.90452314    -0.61800
O753        O  0.93827249  0.41584523  0.90384494    -0.74300
O754        O  0.02466471  0.35210429  0.84092495    -0.73000
Cu755      Cu  0.98285969  0.43908659  0.82469505     1.04600
Cu756      Cu  0.98056269  0.38234396  0.87385067     1.04300
C757        C  0.04202851  0.37030052  0.80964638     0.93300
C758        C  0.92468880  0.45139955  0.89103673     0.92400
C759        C  0.04196982  0.44736338  0.89233959     0.84500
C760        C  0.91754355  0.37546113  0.80912246     0.90800
O761        O  0.93835293  0.40236127  0.15426320    -0.72900
O762        O  0.02770404  0.33910106  0.21657104    -0.73900
O763        O  0.93523531  0.33720151  0.21350769    -0.62500
O764        O  0.02657502  0.40307527  0.15705083    -0.71000
O765        O  0.02696932  0.45230480  0.20647276    -0.70500
O766        O  0.93217496  0.38710497  0.26198441    -0.61800
O767        O  0.02497485  0.38740150  0.26660800    -0.74300
O768        O  0.93711345  0.45265820  0.20259056    -0.73000
Cu769      Cu  0.98194559  0.36860551  0.18391264     1.04600
Cu770      Cu  0.98017584  0.42127891  0.23660288     1.04300
C771        C  0.92382855  0.43694118  0.16826673     0.93300
C772        C  0.04308864  0.35596234  0.24957179     0.92400
C773        C  0.91680900  0.35397923  0.24464060     0.84500
C774        C  0.04169271  0.43684151  0.17274254     0.90800
C775        C  0.82955481  0.30686275  0.31262229     0.86500
C776        C  0.87259397  0.30875218  0.29108479    -0.53700
C777        C  0.87565000  0.33724244  0.25888685     0.09400
C778        C  0.83440221  0.36127161  0.24996491     0.20400
C779        C  0.82189445  0.35341687  0.32462159    -0.54500
C780        C  0.82525258  0.38175141  0.29230106     0.09500
C781        C  0.79800113  0.29867690  0.27687947    -0.54000
C782        C  0.79912824  0.32739719  0.24393626     0.10100
H783        H  0.89984665  0.29333307  0.30388125     0.14600
H784        H  0.83709102  0.38473560  0.22414585     0.00300
H785        H  0.81367485  0.36410056  0.35563182     0.14900
H786        H  0.77559667  0.27297895  0.27926839     0.14700
O787        O  0.21621984  0.38012268  0.07722245    -0.72900
O788        O  0.16017596  0.45151068  0.98877682    -0.73900
O789        O  0.16101203  0.44840509  0.07846577    -0.62500
O790        O  0.21540885  0.38225851  0.98433319    -0.71000
O791        O  0.16211079  0.33707290  0.98315014    -0.70500
O792        O  0.10931428  0.40106616  0.07709509    -0.61800
O793        O  0.10774252  0.40493931  0.98920450    -0.74300
O794        O  0.16385629  0.33358204  0.07612144    -0.73000
Cu795      Cu  0.19057382  0.41679747  0.03218404     1.04600
Cu796      Cu  0.13432730  0.36734976  0.03134657     1.04300
C797        C  0.19671826  0.34865434  0.09349842     0.93300
C798        C  0.12456695  0.43890094  0.97545051     0.92400
C799        C  0.12614257  0.43424361  0.09232885     0.84500
C800        C  0.19520222  0.35224019  0.96618070     0.90800
C801        C  0.19046209  0.34767110  0.84689667     0.86500
C802        C  0.17652639  0.33512311  0.89191834    -0.53700
C803        C  0.20711572  0.33946795  0.92249587     0.09400
C804        C  0.24998104  0.35229564  0.90403063     0.20400
C805        C  0.20881583  0.39229454  0.85200403    -0.54500
C806        C  0.23953407  0.39499947  0.88188516     0.09500
C807        C  0.22940616  0.32115576  0.83828583    -0.54000
C808        C  0.25997373  0.32001739  0.86857139     0.10100
H809        H  0.14370674  0.33064733  0.89960201     0.14600
H810        H  0.27499572  0.35474012  0.92819643     0.00300
H811        H  0.19734451  0.41968817  0.83500013     0.14900
H812        H  0.23328068  0.30721552  0.80793854     0.14700
C813        C  0.15924529  0.21562491  0.67580063     0.86500
C814        C  0.11438365  0.19670170  0.67697068    -0.53700
C815        C  0.08259751  0.22540233  0.67790196     0.09400
C816        C  0.09820371  0.27129682  0.67552124     0.20400
C817        C  0.15838727  0.24587940  0.63732427    -0.54500
C818        C  0.12516723  0.27208972  0.63535958     0.09500
C819        C  0.15972523  0.24622884  0.71353146    -0.54000
C820        C  0.12888242  0.27656334  0.71350374     0.10100
H821        H  0.10744850  0.16367200  0.67152798     0.14600
H822        H  0.07263111  0.29485686  0.67477759     0.00300
H823        H  0.17993076  0.24510535  0.61128980     0.14900
H824        H  0.18310824  0.24414777  0.73774415     0.14700
C825        C  0.83725207  0.27539463  0.71112878     0.86500
C826        C  0.84077737  0.28960098  0.66477088    -0.53700
C827        C  0.83794290  0.25767844  0.63617924     0.09400
C828        C  0.83562772  0.21348727  0.65627625     0.20400
C829        C  0.79728318  0.24795355  0.71136424    -0.54500
C830        C  0.79685517  0.21375360  0.68507402     0.09500
C831        C  0.87336501  0.24344725  0.71590858    -0.54000
C832        C  0.87430579  0.21321174  0.68552347     0.10100
H833        H  0.84313972  0.32222378  0.65461155     0.14600
H834        H  0.83538183  0.18738502  0.63319709     0.00300
H835        H  0.77035136  0.25682619  0.72949292     0.14900
H836        H  0.89976004  0.24786800  0.73683730     0.14700
O837        O  0.02497539  0.76860239  0.62039491    -0.72900
O838        O  0.93601142  0.83186803  0.55382449    -0.73900
O839        O  0.02559825  0.83204067  0.55817028    -0.62500
O840        O  0.93027605  0.76878782  0.61427534    -0.71000
O841        O  0.92834682  0.81603726  0.66526245    -0.70500
O842        O  0.02343747  0.87836529  0.61024322    -0.61800
O843        O  0.93556901  0.87875540  0.60548156    -0.74300
O844        O  0.02198380  0.81525512  0.67180210    -0.73000
Cu845      Cu  0.97938229  0.79813830  0.58521228     1.04600
Cu846      Cu  0.97731932  0.84840506  0.64011345     1.04300
C847        C  0.04021007  0.78414635  0.65437500     0.93300
C848        C  0.92153480  0.86516742  0.57058437     0.92400
C849        C  0.03910121  0.86545997  0.57592642     0.84500
C850        C  0.91138990  0.78522637  0.64553064     0.90800
O851        O  0.80078340  0.04477118  0.56556219    -0.72900
O852        O  0.74127922  0.95190326  0.62900891    -0.73900
O853        O  0.74233609  0.04599138  0.63133336    -0.62500
O854        O  0.79981940  0.95560046  0.56382236    -0.71000
O855        O  0.84939519  0.95514825  0.61296293    -0.70500
O856        O  0.79165523  0.04398515  0.68038240    -0.61800
O857        O  0.79124415  0.95047634  0.67757917    -0.74300
O858        O  0.84979320  0.04307600  0.61528557    -0.73000
Cu859      Cu  0.76866612  0.99963307  0.59621872     1.04600
Cu860      Cu  0.82187096  0.99813042  0.64849764     1.04300
C861        C  0.83553490  0.05754996  0.58073147     0.93300
C862        C  0.75911099  0.93379412  0.66026312     0.92400
C863        C  0.75992615  0.06197882  0.66384281     0.84500
C864        C  0.83455539  0.94207393  0.57814364     0.90800
C865        C  0.26410048  0.84541235  0.71083135     0.86500
C866        C  0.24695370  0.89072718  0.70764979    -0.53700
C867        C  0.21544960  0.89552574  0.67901788     0.09400
C868        C  0.20325104  0.85438006  0.65573684     0.20400
C869        C  0.22456205  0.81828869  0.71916822    -0.54500
C870        C  0.19256132  0.82131402  0.68976404     0.09500
C871        C  0.27619517  0.83421784  0.66574153    -0.54000
C872        C  0.24474204  0.83950165  0.63672721     0.10100
H873        H  0.25990705  0.91724857  0.72491356     0.14600
H874        H  0.17812997  0.85869595  0.63196835     0.00300
H875        H  0.22348038  0.79750025  0.74589042     0.14900
H876        H  0.30838774  0.82814773  0.65690706     0.14700
O877        O  0.15942558  0.96056973  0.56766686    -0.72900
O878        O  0.21997035  0.04699573  0.63844136    -0.73900
O879        O  0.21813526  0.95492674  0.63326962    -0.62500
O880        O  0.16182228  0.05053496  0.57163785    -0.71000
O881        O  0.11169953  0.04849078  0.61978478    -0.70500
O882        O  0.16795501  0.95344947  0.68129593    -0.61800
O883        O  0.16905422  0.04584815  0.68559416    -0.74300
O884        O  0.10971314  0.95995304  0.61632243    -0.73000
Cu885      Cu  0.19206023  0.00330348  0.60142800     1.04600
Cu886      Cu  0.13814723  0.00180815  0.65258766     1.04300
C887        C  0.12453626  0.94683531  0.58177645     0.93300
C888        C  0.20193720  0.06303639  0.67039147     0.92400
C889        C  0.20041073  0.93723631  0.66475168     0.84500
C890        C  0.12747265  0.06418551  0.58635555     0.90800
O891        O  0.02566233  0.17638145  0.68017546    -0.72900
O892        O  0.93802530  0.11677033  0.61295205    -0.73900
O893        O  0.02570986  0.12199916  0.61324282    -0.62500
O894        O  0.93446962  0.16934306  0.68234724    -0.71000
O895        O  0.92933744  0.22195891  0.63622338    -0.70500
O896        O  0.02587590  0.17642329  0.56882637    -0.61800
O897        O  0.93627259  0.16959530  0.56663384    -0.74300
O898        O  0.02042394  0.23159517  0.63724638    -0.73000
Cu899      Cu  0.98100160  0.14448030  0.64886555     1.04600
Cu900      Cu  0.97775423  0.20217256  0.60091976     1.04300
C901        C  0.03976954  0.21166138  0.66623698     0.93300
C902        C  0.92326728  0.13380259  0.57971718     0.92400
C903        C  0.04101245  0.14140343  0.58171971     0.84500
C904        C  0.91513815  0.20130570  0.66791274     0.90800
C905        C  0.19598177  0.18079682  0.67353606     0.86500
C906        C  0.18493010  0.13569955  0.69067571    -0.53700
C907        C  0.21526298  0.10568693  0.68463056     0.09400
C908        C  0.25623531  0.12484651  0.66824154     0.20400
C909        C  0.23667714  0.19233250  0.69733177    -0.54500
C910        C  0.26673720  0.16146740  0.69866564     0.09500
C911        C  0.21091089  0.17161421  0.62827998    -0.54000
C912        C  0.24313093  0.14434270  0.62563150     0.10100
H913        H  0.15398568  0.12628056  0.70085202     0.14600
H914        H  0.28182815  0.10143315  0.66581488     0.00300
H915        H  0.24071708  0.22220810  0.71279080     0.14900
H916        H  0.19577128  0.18247247  0.59982977     0.14700
O917        O  0.81476247  0.04466540  0.25033721    -0.72900
O918        O  0.74772643  0.95873889  0.31623323    -0.73900
O919        O  0.75454288  0.05281598  0.31284354    -0.62500
O920        O  0.81010827  0.95572368  0.25387026    -0.71000
O921        O  0.85910276  0.95751812  0.30348187    -0.70500
O922        O  0.80169269  0.04907345  0.36384456    -0.61800
O923        O  0.79769066  0.95668813  0.36448927    -0.74300
O924        O  0.86228130  0.04535274  0.30126391    -0.73000
Cu925      Cu  0.77957421  0.00314644  0.28195018     1.04600
Cu926      Cu  0.83148767  0.00228054  0.33525881     1.04300
C927        C  0.84909336  0.05801622  0.26554658     0.93300
C928        C  0.76507673  0.94035782  0.34745689     0.92400
C929        C  0.77125725  0.06793529  0.34605054     0.84500
C930        C  0.84425042  0.94238124  0.26967130     0.90800
O931        O  0.03326897  0.87625356  0.30257965    -0.72900
O932        O  0.94317453  0.81274372  0.36650499    -0.73900
O933        O  0.03661254  0.81342161  0.36573154    -0.62500
O934        O  0.94464483  0.87567035  0.30424848    -0.71000
O935        O  0.94252222  0.82865588  0.25270152    -0.70500
O936        O  0.03239289  0.76890086  0.31270675    -0.61800
O937        O  0.94413228  0.76674446  0.31456094    -0.74300
O938        O  0.03045256  0.83015985  0.25033165    -0.73000
Cu939      Cu  0.98956233  0.84619534  0.33690295     1.04600
Cu940      Cu  0.98749073  0.79674264  0.28134780     1.04300
C941        C  0.04541804  0.86350392  0.26665794     0.93300
C942        C  0.92675433  0.78116835  0.34745435     0.92400
C943        C  0.05068333  0.78157704  0.34603122     0.84500
C944        C  0.92919944  0.86204556  0.26979554     0.90800
O945        O  0.03120843  0.17905138  0.36476308    -0.72900
O946        O  0.94651739  0.12115571  0.29516554    -0.73900
O947        O  0.03363583  0.12373759  0.29896389    -0.62500
O948        O  0.94073541  0.17758640  0.36112467    -0.71000
O949        O  0.93955372  0.22886263  0.31343954    -0.70500
O950        O  0.03607097  0.17631107  0.25236858    -0.61800
O951        O  0.94691429  0.17230396  0.24695393    -0.74300
O952        O  0.03166533  0.23243739  0.31936017    -0.73000
Cu953      Cu  0.98781191  0.14878973  0.33167750     1.04600
Cu954      Cu  0.98844968  0.20477346  0.28161557     1.04300
C955        C  0.04790128  0.21283805  0.35053682     0.93300
C956        C  0.93335634  0.13694708  0.26082573     0.92400
C957        C  0.05003270  0.14160964  0.26702554     0.84500
C958        C  0.92361582  0.21039829  0.34542492     0.90800
C959        C  0.84492173  0.25256360  0.42299806     0.86500
C960        C  0.82229232  0.21109865  0.41621750    -0.53700
C961        C  0.81037931  0.20158739  0.37673142     0.09400
C962        C  0.83975600  0.22740719  0.34524093     0.20400
C963        C  0.88767462  0.24156678  0.40614572    -0.54500
C964        C  0.88567046  0.22717421  0.36540705     0.09500
C965        C  0.82778137  0.28567110  0.39127755    -0.54000
C966        C  0.82805627  0.27434128  0.34971102     0.10100
H967        H  0.81504479  0.19026558  0.44252370     0.14600
H968        H  0.83875460  0.21567096  0.31250995     0.00300
H969        H  0.91625976  0.24295454  0.42461659     0.14900
H970        H  0.82133841  0.31724828  0.40194094     0.14700
O971        O  0.11533265  0.04546587  0.30432262    -0.72900
O972        O  0.16705665  0.94749904  0.36383865    -0.73900
O973        O  0.16881878  0.04040369  0.37265853    -0.62500
O974        O  0.11174677  0.95788583  0.29835091    -0.71000
O975        O  0.16220455  0.95953979  0.25043136    -0.70500
O976        O  0.22281879  0.03926867  0.32991746    -0.61800
O977        O  0.21729463  0.94649788  0.31608767    -0.74300
O978        O  0.16876368  0.04871667  0.25986406    -0.73000
Cu979      Cu  0.13924147  0.99761547  0.33659974     1.04600
Cu980      Cu  0.19514474  0.99866389  0.28787259     1.04300
C981        C  0.13365893  0.06213425  0.27274965     0.93300
C982        C  0.19792257  0.92891807  0.34644495     0.92400
C983        C  0.20316611  0.05670531  0.36009150     0.84500
C984        C  0.12705556  0.94566779  0.26377753     0.90800
C985        C  0.24192393  0.84648371  0.42081598     0.86500
C986        C  0.27932013  0.83882969  0.39118124    -0.53700
C987        C  0.26964180  0.83892436  0.34891358     0.09400
C988        C  0.22170090  0.84591148  0.34143179     0.20400
C989        C  0.22309469  0.88783018  0.40500554    -0.54500
C990        C  0.21298617  0.88853204  0.36415535     0.09500
C991        C  0.21011768  0.81267008  0.41029926    -0.54000
C992        C  0.19850338  0.81156357  0.36905725     0.10100
H993        H  0.31068902  0.83587622  0.40355545     0.14600
H994        H  0.21234805  0.84604392  0.30786120     0.00300
H995        H  0.21955212  0.91589047  0.42413127     0.14900
H996        H  0.19726580  0.79172212  0.43411690     0.14700
C997        C  0.16499037  0.21192743  0.38015877     0.86500
C998        C  0.12226558  0.19653905  0.36230400    -0.53700
C999        C  0.09005347  0.22437497  0.36579978     0.09400
C1000       C  0.10339037  0.26710800  0.38332240     0.20400
C1001       C  0.17296245  0.25357205  0.35593605    -0.54500
C1002       C  0.13963910  0.28105520  0.35416863     0.09500
C1003       C  0.15360912  0.22687898  0.42504796    -0.54000
C1004       C  0.12304135  0.25650188  0.42662645     0.10100
H1005       H  0.11733948  0.16710241  0.34587476     0.14600
H1006       H  0.07750820  0.29020288  0.38526002     0.00300
H1007       H  0.20164182  0.25946673  0.33890472     0.14900
H1008       H  0.16660709  0.21433622  0.45387695     0.14700
C1009       C  0.20213535  0.17754436  0.37751079     0.86500
C1010       C  0.23196518  0.17879780  0.41537272    -0.53700
C1011       C  0.25972700  0.14682447  0.41711655     0.09400
C1012       C  0.25991105  0.11862014  0.37745052     0.20400
C1013       C  0.23285518  0.17957191  0.33905935    -0.54500
C1014       C  0.26408717  0.14965675  0.33966932     0.09500
C1015       C  0.18570977  0.13088738  0.37733577    -0.54000
C1016       C  0.21538191  0.10020447  0.37488473     0.10100
H1017       H  0.22954087  0.20040271  0.44137015     0.14600
H1018       H  0.28443312  0.09393818  0.37823162     0.00300
H1019       H  0.22916241  0.20093075  0.31264281     0.14900
H1020       H  0.15304529  0.12184331  0.37747502     0.14700
O1021       O  0.28469836  0.82892720  0.57478931    -0.72900
O1022       O  0.34571254  0.88753590  0.48264492    -0.73900
O1023       O  0.34864510  0.88774619  0.56970682    -0.62500
O1024       O  0.28233429  0.82868016  0.48256251    -0.71000
O1025       O  0.23655892  0.88074278  0.48702293    -0.70500
O1026       O  0.30448447  0.94181574  0.57089468    -0.61800
O1027       O  0.30041119  0.94056913  0.48278381    -0.74300
O1028       O  0.24010450  0.88242898  0.57643512    -0.73000
Cu1029     Cu  0.31650863  0.85595789  0.52756889     1.04600
Cu1030     Cu  0.26828264  0.91280814  0.52939622     1.04300
C1031       C  0.25562818  0.84926523  0.59299030     0.93300
C1032       C  0.33291888  0.92281255  0.46833681     0.92400
C1033       C  0.33791809  0.92390180  0.58296673     0.84500
C1034       C  0.25263301  0.85023553  0.46671491     0.90800
O1035       O  0.07581602  0.25910055  0.48457085    -0.72900
O1036       O  0.01234892  0.32563890  0.56998234    -0.73900
O1037       O  0.01359789  0.32096464  0.48088859    -0.62500
O1038       O  0.07612181  0.26712997  0.57820336    -0.71000
O1039       O  0.12680519  0.31518325  0.57360498    -0.70500
O1040       O  0.06442854  0.36938955  0.48055050    -0.61800
O1041       O  0.06330423  0.37392393  0.56790909    -0.74300
O1042       O  0.12572153  0.30816689  0.48129256    -0.73000
Cu1043     Cu  0.04304954  0.29090407  0.52849437     1.04600
Cu1044     Cu  0.09692047  0.34308494  0.52568844     1.04300
C1045       C  0.10810678  0.27491051  0.46662442     0.93300
C1046       C  0.02870262  0.36000079  0.58266538     0.92400
C1047       C  0.03025436  0.35464854  0.46608120     0.84500
C1048       C  0.10874778  0.28530996  0.59362241     0.90800
O1049       O  0.35220394  0.08854308  0.57459822    -0.72900
O1050       O  0.30137555  0.15027600  0.47910643    -0.73900
O1051       O  0.29251811  0.14948507  0.57057894    -0.62500
O1052       O  0.36136498  0.08987546  0.48737739    -0.71000
O1053       O  0.31455312  0.03789004  0.48048374    -0.70500
O1054       O  0.24509617  0.09796273  0.56670058    -0.61800
O1055       O  0.25428468  0.09850245  0.47389064    -0.74300
O1056       O  0.30548004  0.03617248  0.57036304    -0.73000
Cu1057     Cu  0.32828685  0.12131657  0.52810797     1.04600
Cu1058     Cu  0.27771197  0.06595960  0.52268468     1.04300
C1059       C  0.33643691  0.05412827  0.58828305     0.93300
C1060       C  0.27244620  0.13131964  0.45876607     0.92400
C1061       C  0.26030792  0.13055433  0.58507714     0.84500
C1062       C  0.34822141  0.05663133  0.46929930     0.90800
O1063       O  0.73038787  0.30618018  0.56735814    -0.72900
O1064       O  0.80426850  0.24919825  0.48569375    -0.73900
O1065       O  0.79637539  0.24885896  0.57507601    -0.62500
O1066       O  0.73769745  0.30663115  0.47833750    -0.71000
O1067       O  0.78493839  0.35836821  0.48201533    -0.70500
O1068       O  0.84482061  0.29961602  0.57474931    -0.61800
O1069       O  0.85095486  0.30103647  0.48261939    -0.74300
O1070       O  0.77910394  0.35666173  0.56997285    -0.73000
Cu1071     Cu  0.76596993  0.27549794  0.52641545     1.04600
Cu1072     Cu  0.81687697  0.33044061  0.52758505     1.04300
C1073       C  0.74405451  0.34103419  0.58182115     0.93300
C1074       C  0.83549687  0.26706264  0.46752275     0.92400
C1075       C  0.82742642  0.26764144  0.59227693     0.84500
C1076       C  0.75225594  0.34212544  0.46555812     0.90800
C1077       C  0.13353650  0.31173825  0.31666285     0.86500
C1078       C  0.14596819  0.35735095  0.32694428    -0.53700
C1079       C  0.13957704  0.38579306  0.29489760     0.09400
C1080       C  0.12613667  0.36447895  0.25345600     0.20400
C1081       C  0.08846351  0.31533689  0.29937073    -0.54500
C1082       C  0.08440971  0.34208409  0.26588026     0.09500
C1083       C  0.15913176  0.30033481  0.27790322    -0.54000
C1084       C  0.15877060  0.32890413  0.24554433     0.10100
H1085       H  0.15119715  0.36712532  0.35917645     0.14600
H1086       H  0.12304907  0.38728397  0.22706136     0.00300
H1087       H  0.06146687  0.30116712  0.31410270     0.14900
H1088       H  0.17575536  0.27093865  0.27647932     0.14700
C1089       C  0.26263468  0.30760138  0.18433790     0.86500
C1090       C  0.27403957  0.35479804  0.19036989    -0.53700
C1091       C  0.24081288  0.38222179  0.18521677     0.09400
C1092       C  0.19922573  0.35965025  0.17523951     0.20400
C1093       C  0.22610102  0.30073328  0.21519815    -0.54500
C1094       C  0.19273160  0.32768789  0.21171004     0.09500
C1095       C  0.24193599  0.30637228  0.14074875    -0.54000
C1096       C  0.20959037  0.33366099  0.13553052     0.10100
H1097       H  0.30612671  0.36568206  0.19419502     0.14600
H1098       H  0.17280429  0.38178584  0.17064615     0.00300
H1099       H  0.22814632  0.27838048  0.24024576     0.14900
H1100       H  0.25463951  0.28874120  0.11469259     0.14700
O1101       O  0.29551065  0.53868143  0.08484773    -0.72900
O1102       O  0.23216032  0.44399595  0.14243192    -0.73900
O1103       O  0.22578774  0.53812072  0.13606784    -0.62500
O1104       O  0.30105732  0.45007181  0.08911928    -0.71000
O1105       O  0.34173650  0.45614078  0.14570012    -0.70500
O1106       O  0.26639217  0.54157464  0.19265862    -0.61800
O1107       O  0.27425199  0.44862302  0.19778538    -0.74300
O1108       O  0.33496079  0.54276912  0.14239904    -0.73000
Cu1109     Cu  0.26134447  0.49232027  0.11150918     1.04600
Cu1110     Cu  0.30501731  0.49739988  0.17194913     1.04300
C1111       C  0.32578413  0.55499277  0.10547982     0.93300
C1112       C  0.24783190  0.42781736  0.17592402     0.92400
C1113       C  0.24065780  0.55879454  0.16706836     0.84500
C1114       C  0.33380784  0.44060162  0.10984164     0.90800
O1115       O  0.78200428  0.53622243  0.28396744    -0.72900
O1116       O  0.72702485  0.44022233  0.34802685    -0.73900
O1117       O  0.72233844  0.53051910  0.34678267    -0.62500
O1118       O  0.78473931  0.44333527  0.28250078    -0.71000
O1119       O  0.83645897  0.44588223  0.32923816    -0.70500
O1120       O  0.77524189  0.53433203  0.39223826    -0.61800
O1121       O  0.77949769  0.44553859  0.39370674    -0.74300
O1122       O  0.83429840  0.54008601  0.32955101    -0.73000
Cu1123     Cu  0.75254943  0.48755950  0.31327406     1.04600
Cu1124     Cu  0.80848227  0.49154914  0.36240259     1.04300
C1125       C  0.81372033  0.55625085  0.29913422     0.93300
C1126       C  0.74578641  0.42779629  0.38129540     0.92400
C1127       C  0.73966337  0.54666433  0.37893942     0.84500
C1128       C  0.81686936  0.42689338  0.29963010     0.90800
O1129       O  0.35200128  0.53952986  0.94065230    -0.72900
O1130       O  0.28804382  0.45188046  0.87939792    -0.73900
O1131       O  0.29125919  0.54323109  0.87981395    -0.62500
O1132       O  0.34818097  0.45159239  0.94141590    -0.71000
O1133       O  0.30129069  0.45221939  0.99290614    -0.70500
O1134       O  0.24399873  0.54552490  0.93082198    -0.61800
O1135       O  0.24042491  0.45241266  0.93001681    -0.74300
O1136       O  0.30543583  0.54248369  0.99226258    -0.73000
Cu1137     Cu  0.32126973  0.49652841  0.90855581     1.04600
Cu1138     Cu  0.27055209  0.49821209  0.96311584     1.04300
C1139       C  0.33913900  0.55528412  0.97480765     0.93300
C1140       C  0.25605218  0.43569130  0.89711812     0.92400
C1141       C  0.26072453  0.56120690  0.89783875     0.84500
C1142       C  0.33389823  0.43719229  0.97592260     0.90800
O1143       O  0.07978072  0.53653350  0.39792196    -0.72900
O1144       O  0.14130777  0.44702047  0.33777756    -0.73900
O1145       O  0.14035792  0.53951838  0.33706080    -0.62500
O1146       O  0.07633398  0.44762356  0.39701580    -0.71000
O1147       O  0.02527718  0.45145506  0.34957945    -0.70500
O1148       O  0.09536173  0.53126183  0.28461680    -0.61800
O1149       O  0.09032394  0.44226505  0.29061183    -0.74300
O1150       O  0.03296652  0.54187568  0.34654906    -0.73000
Cu1151     Cu  0.11145577  0.49237840  0.36893985     1.04600
Cu1152     Cu  0.05944870  0.49167271  0.31586064     1.04300
C1153       C  0.04836852  0.55468028  0.38150686     0.93300
C1154       C  0.12408804  0.42802320  0.30697784     0.92400
C1155       C  0.12389505  0.55270663  0.30282343     0.84500
C1156       C  0.04042534  0.43601979  0.38314103     0.90800
C1157       C  0.32484018  0.09094314  0.25474373     0.86500
C1158       C  0.31851994  0.12443230  0.22063953    -0.53700
C1159       C  0.32105956  0.16565911  0.23428913     0.09400
C1160       C  0.32954003  0.16870660  0.28278738     0.20400
C1161       C  0.36589693  0.10308545  0.27477883    -0.54500
C1162       C  0.37112515  0.14315153  0.28785195     0.09500
C1163       C  0.29292261  0.10022020  0.28784917    -0.54000
C1164       C  0.29375569  0.14028171  0.30366805     0.10100
H1165       H  0.31611386  0.11513205  0.18820676     0.14600
H1166       H  0.33177622  0.20147274  0.29477889     0.00300
H1167       H  0.39138288  0.08087165  0.27658196     0.14900
H1168       H  0.27225236  0.07638528  0.29813619     0.14700
C1169       C  0.32448129  0.20342084  0.20368582     0.86500
C1170       C  0.36935946  0.22059226  0.20127954    -0.53700
C1171       C  0.37442579  0.25356062  0.17425694     0.09400
C1172       C  0.33293995  0.26797250  0.15276749     0.20400
C1173       C  0.29780509  0.24115965  0.21552067    -0.54500
C1174       C  0.29926947  0.27496630  0.18796986     0.09500
C1175       C  0.31207855  0.19466015  0.15724031    -0.54000
C1176       C  0.31824400  0.22784129  0.13009583     0.10100
H1177       H  0.39556781  0.20575302  0.21720086     0.14600
H1178       H  0.33686823  0.29545945  0.13127532     0.00300
H1179       H  0.27747344  0.23825002  0.24228313     0.14900
H1180       H  0.30392449  0.16382949  0.14523078     0.14700
O1181       O  0.42968721  0.37103151  0.93742988    -0.72900
O1182       O  0.52785823  0.31726201  0.87979544    -0.73900
O1183       O  0.43356320  0.31349641  0.87221718    -0.62500
O1184       O  0.51719279  0.37571079  0.94153967    -0.71000
O1185       O  0.52041777  0.32369033  0.98858583    -0.70500
O1186       O  0.42865735  0.26523843  0.92272141    -0.61800
O1187       O  0.52186862  0.26479771  0.92569592    -0.74300
O1188       O  0.43106285  0.32240540  0.98808424    -0.73000
Cu1189     Cu  0.47695135  0.34581025  0.90572286     1.04600
Cu1190     Cu  0.47538464  0.29178542  0.95756368     1.04300
C1191       C  0.41582913  0.35565455  0.97187205     0.93300
C1192       C  0.54342687  0.28478584  0.89808520     0.92400
C1193       C  0.41397034  0.28270103  0.88944905     0.84500
C1194       C  0.53335762  0.35908105  0.97406734     0.90800
O1195       O  0.43616113  0.11203412  0.39326616    -0.72900
O1196       O  0.52675958  0.17286947  0.32655777    -0.73900
O1197       O  0.42854877  0.17300741  0.33043571    -0.62500
O1198       O  0.52380582  0.11404576  0.39119054    -0.71000
O1199       O  0.51846560  0.05791622  0.34977569    -0.70500
O1200       O  0.44253524  0.12904125  0.27956149    -0.61800
O1201       O  0.52673639  0.11606157  0.28660187    -0.74300
O1202       O  0.43123878  0.06408811  0.34286152    -0.73000
Cu1203     Cu  0.47889168  0.14591665  0.36164897     1.04600
Cu1204     Cu  0.47923342  0.09046698  0.31277453     1.04300
C1205       C  0.42066797  0.07783143  0.37856847     0.93300
C1206       C  0.54528840  0.14865924  0.30021323     0.92400
C1207       C  0.41640171  0.15300893  0.29789032     0.84500
C1208       C  0.53474118  0.07678004  0.38116098     0.90800
O1209       O  0.43783769  0.29220968  0.18520291    -0.72900
O1210       O  0.52871569  0.36243576  0.13559534    -0.73900
O1211       O  0.44125470  0.36663688  0.13989675    -0.62500
O1212       O  0.52973258  0.28766146  0.17787728    -0.71000
O1213       O  0.52452798  0.25410272  0.11711772    -0.70500
O1214       O  0.43636741  0.33315257  0.07882505    -0.61800
O1215       O  0.52473540  0.32870837  0.07469855    -0.74300
O1216       O  0.43062261  0.25912617  0.12441137    -0.73000
Cu1217     Cu  0.48445640  0.32797760  0.16190731     1.04600
Cu1218     Cu  0.47866770  0.29188390  0.09687971     1.04300
C1219       C  0.41666606  0.26831507  0.16093466     0.93300
C1220       C  0.54179555  0.35601560  0.09858840     0.92400
C1221       C  0.42499733  0.36203434  0.10363398     0.84500
C1222       C  0.54560863  0.26397330  0.14982180     0.90800
O1223       O  0.52872484  0.90419586  0.29070731    -0.72900
O1224       O  0.43103777  0.94988037  0.35411484    -0.73900
O1225       O  0.52041961  0.95994152  0.35600017    -0.62500
O1226       O  0.43567628  0.89083153  0.28889711    -0.71000
O1227       O  0.44145437  0.83826166  0.33471331    -0.70500
O1228       O  0.52389268  0.90550420  0.40030700    -0.61800
O1229       O  0.43666968  0.89605027  0.39893183    -0.74300
O1230       O  0.53364747  0.85053691  0.33557057    -0.73000
Cu1231     Cu  0.47871591  0.92786433  0.32034896     1.04600
Cu1232     Cu  0.48410408  0.87059731  0.36855499     1.04300
C1233       C  0.54914620  0.87315873  0.30600921     0.93300
C1234       C  0.41872672  0.92972977  0.38653531     0.92400
C1235       C  0.53629838  0.94176748  0.38813522     0.84500
C1236       C  0.42165521  0.85608415  0.30466799     0.90800
C1237       C  0.88292060  0.76484082  0.35784161     0.86500
C1238       C  0.84992145  0.79869115  0.34896222    -0.53700
C1239       C  0.80881877  0.78669736  0.35497291     0.09400
C1240       C  0.80557114  0.73854295  0.36649025     0.20400
C1241       C  0.87341482  0.74904373  0.40237225    -0.54500
C1242       C  0.83267920  0.73593245  0.40767147     0.09500
C1243       C  0.87084671  0.72810861  0.32970895    -0.54000
C1244       C  0.83116623  0.71378466  0.33183478     0.10100
H1245       H  0.86029197  0.83024938  0.34123612     0.14600
H1246       H  0.77291151  0.72708860  0.37056804     0.00300
H1247       H  0.89632619  0.74923306  0.42759671     0.14900
H1248       H  0.89329443  0.71248759  0.31055268     0.14700
C1249       C  0.35537981  0.40254450  0.99363616    -0.13300
C1250       C  0.38204132  0.37648019  0.99137211    -0.14800
C1251       C  0.36285091  0.41189818  0.09376120    -0.13300
C1252       C  0.39171548  0.38853450  0.09219522    -0.14800
C1253       C  0.73335437  0.36501440  0.43165478    -0.13300
C1254       C  0.73111364  0.39232201  0.40530514    -0.14800
C1255       C  0.36996364  0.04505939  0.43259444    -0.13300
C1256       C  0.39201002  0.05427292  0.40364965    -0.14800
C1257       C  0.01296744  0.37716906  0.43162470    -0.13300
C1258       C  0.01791029  0.40418143  0.40561283    -0.14800
C1259       C  0.38346171  0.94338647  0.40956475    -0.13300
C1260       C  0.35624273  0.94136158  0.43516028    -0.14800
C1261       C  0.08602338  0.12210900  0.24995837    -0.13300
C1262       C  0.11335346  0.09656350  0.25254379    -0.14800
C1263       C  0.07715954  0.88717933  0.24551224    -0.13300
C1264       C  0.10405084  0.91360604  0.24278718    -0.14800
C1265       C  0.87340484  0.08859202  0.24345988    -0.13300
C1266       C  0.90064675  0.11451493  0.24053019    -0.14800
C1267       C  0.86730586  0.90941338  0.25098527    -0.13300
C1268       C  0.89514492  0.88439803  0.25175234    -0.14800
C1269       C  0.07734161  0.12300874  0.56365036    -0.13300
C1270       C  0.10522724  0.09782544  0.56624483    -0.14800
C1271       C  0.88919188  0.11294135  0.55964864    -0.13300
C1272       C  0.86011563  0.08890000  0.56011268    -0.14800
C1273       C  0.10096764  0.91499982  0.56060728    -0.13300
C1274       C  0.07343538  0.88904963  0.55907850    -0.14800
C1275       C  0.88684532  0.88716016  0.55295263    -0.13300
C1276       C  0.85840111  0.91146328  0.55610924    -0.14800
C1277       C  0.10446487  0.45407723  0.12605835    -0.13300
C1278       C  0.07700948  0.45518113  0.15177116    -0.14800
C1279       C  0.07601854  0.46378023  0.91657840    -0.13300
C1280       C  0.10256920  0.46107068  0.94320790    -0.14800
C1281       C  0.86412819  0.45746010  0.11829248    -0.13300
C1282       C  0.89091193  0.45645419  0.14483341    -0.14800
C1283       C  0.89036606  0.46849930  0.91339818    -0.13300
C1284       C  0.86246052  0.46414477  0.93811541    -0.14800
C1285       C  0.09298029  0.77102556  0.10476528    -0.13300
C1286       C  0.06843474  0.76860833  0.13283226    -0.14800
C1287       C  0.86938939  0.75969610  0.09931612    -0.13300
C1288       C  0.89343395  0.76001175  0.12816295    -0.14800
C1289       C  0.09857147  0.76153020  0.91725579    -0.13300
C1290       C  0.07527862  0.75530803  0.88845462    -0.14800
C1291       C  0.89747623  0.74651781  0.88886962    -0.13300
C1292       C  0.87112825  0.74756008  0.91542989    -0.14800
C1293       C  0.42517385  0.09142291  0.14286134    -0.13300
C1294       C  0.42620793  0.11907761  0.11699941    -0.14800
C1295       C  0.43273087  0.09344112  0.90584755    -0.13300
C1296       C  0.43187690  0.12021613  0.93241689    -0.14800
C1297       C  0.44522120  0.91027508  0.13441522    -0.13300
C1298       C  0.44808109  0.88317125  0.10856911    -0.14800
C1299       C  0.42998681  0.90621499  0.90387481    -0.13300
C1300       C  0.43246149  0.87771074  0.92864034    -0.14800
C1301       C  0.76806432  0.08533820  0.13305178    -0.13300
C1302       C  0.77437444  0.11020461  0.10543829    -0.14800
C1303       C  0.73949833  0.87906181  0.11094168    -0.13300
C1304       C  0.74411218  0.90535370  0.13753836    -0.14800
C1305       C  0.76341094  0.08731945  0.89571397    -0.13300
C1306       C  0.76819327  0.11470707  0.92102163    -0.14800
C1307       C  0.74886106  0.87331038  0.92828494    -0.13300
C1308       C  0.75309192  0.90032300  0.90170683    -0.14800
C1309       C  0.59811515  0.40400260  0.98711323    -0.13300
C1310       C  0.56921509  0.37990317  0.99055945    -0.14800
C1311       C  0.57535507  0.61253740  0.97894706    -0.13300
C1312       C  0.60176151  0.58594164  0.97801177    -0.14800
C1313       C  0.39095878  0.61483754  0.98782631    -0.13300
C1314       C  0.36339198  0.58918604  0.99110176    -0.14800
C1315       C  0.35153959  0.58716534  0.08833560    -0.13300
C1316       C  0.38128392  0.61025794  0.08856635    -0.14800
C1317       C  0.57058515  0.60558575  0.07812196    -0.13300
C1318       C  0.60010845  0.58231462  0.07936486    -0.14800
C1319       C  0.60573307  0.40411779  0.08739279    -0.13300
C1320       C  0.57731524  0.37949111  0.08559114    -0.14800
C1321       C  0.60081584  0.95549964  0.43308770    -0.13300
C1322       C  0.57134001  0.95888050  0.40992069    -0.14800
C1323       C  0.60346146  0.94084711  0.61145558    -0.13300
C1324       C  0.57741646  0.94103404  0.63803271    -0.14800
C1325       C  0.39356883  0.94656113  0.63555458    -0.13300
C1326       C  0.36477278  0.94354707  0.61201719    -0.14800
C1327       C  0.03595009  0.61929913  0.42866611    -0.13300
C1328       C  0.03329108  0.59126114  0.40316442    -0.14800
C1329       C  0.02927526  0.59085216  0.63422765    -0.13300
C1330       C  0.03132151  0.61969313  0.60971624    -0.14800
C1331       C  0.01055380  0.38269860  0.61618638    -0.13300
C1332       C  0.01353147  0.40784717  0.64386416    -0.14800
C1333       C  0.37834538  0.04082770  0.65388995    -0.13300
C1334       C  0.35383100  0.03803352  0.62574881    -0.14800
C1335       C  0.56179304  0.03806115  0.64232834    -0.13300
C1336       C  0.58799058  0.04355732  0.61605565    -0.14800
C1337       C  0.59218769  0.05383875  0.43329538    -0.13300
C1338       C  0.56638819  0.05728446  0.40604418    -0.14800
C1339       C  0.71636457  0.39219450  0.63668500    -0.13300
C1340       C  0.72095221  0.36389738  0.61231143    -0.14800
C1341       C  0.71654736  0.60922880  0.59684251    -0.13300
C1342       C  0.71578026  0.58046879  0.62149946    -0.14800
C1343       C  0.72184061  0.61128893  0.42209480    -0.13300
C1344       C  0.72121524  0.58132898  0.39954216    -0.14800
loop_ 
_geom_bond_atom_site_label_1 
_geom_bond_atom_site_label_2 
_geom_bond_distance 
_geom_bond_site_symmetry_2 
_ccdc_geom_bond_type 
C1            C2   1.508       .  S
C1            C7   1.550       .  S
C1            C5   1.551       .  S
C1          C631   1.552       .  S
C2            H9   1.075       .  S
C2            C3   1.348       .  D
C3            C4   1.544       .  S
C3          C943   1.487       .  S
C4            C8   1.551       .  S
C4            C6   1.564       .  S
C4           H10   1.111       .  S
C5           H11   1.086       .  S
C5            C6   1.381       .  D
C6          C992   1.505       .  S
C7           H12   1.082       .  S
C7            C8   1.377       .  D
C8          C360   1.495       .  S
C13          C14   1.548       .  S
C13          C19   1.526       .  S
C13          C17   1.546       .  S
C13         C102   1.557       .  S
C14          H21   1.086       .  S
C14          C15   1.381       .  D
C15          C16   1.536       .  S
C15         C315   1.489       .  S
C16          C20   1.563       .  S
C16          C18   1.554       .  S
C16          H22   1.110       .  S
C17          H23   1.078       .  S
C17          C18   1.367       .  D
C18         C863   1.494       .  S
C19          H24   1.074       .  S
C19          C20   1.365       .  D
C20         C830   1.523       .  S
C25          C26   1.542       .  S
C25          C31   1.542       .  S
C25          C29   1.535       .  S
C25         C910   1.562       .  S
C26          H33   1.085       .  S
C26          C27   1.363       .  D
C27          C28   1.554       .  S
C27         C574   1.479       .  S
C28          C32   1.541       .  S
C28          C30   1.560       .  S
C28          H34   1.111       .  S
C29          H35   1.064       .  S
C29          C30   1.374       .  D
C30         C617   1.566       .  S
C31          H36   1.086       .  S
C31          C32   1.381       .  D
C32         C331   1.494       .  S
C37          C38   1.546       .  S
C37          C43   1.543       .  S
C37          C41   1.545       .  S
C37         C681   1.603       .  S
C38          H45   1.083       .  S
C38          C39   1.363       .  D
C39          C40   1.554       .  S
C39         C343   1.480       .  S
C40          C44   1.533       .  S
C40          C42   1.546       .  S
C40          H46   1.111       .  S
C41          H47   1.072       .  S
C41          C42   1.386       .  D
C42          C73   1.571       .  S
C43          H48   1.083       .  S
C43          C44   1.362       .  D
C44         C664   1.462       .  S
C49          C50   1.547       .  S
C49          C55   1.556       .  S
C49          C53   1.550       .  S
C49         C457   1.603       .  S
C50          H57   1.081       .  S
C50          C51   1.350       .  D
C51          C52   1.549       .  S
C51         C415   1.475       .  S
C52          C56   1.558       .  S
C52          C54   1.563       .  S
C52          H58   1.111       .  S
C53          H59   1.078       .  S
C53          C54   1.365       .  D
C54         C133   1.548       .  S
C55          H60   1.082       .  S
C55          C56   1.371       .  D
C56         C496   1.514       .  S
C61          C62   1.534       .  S
C61          C67   1.531       .  S
C61          C65   1.561       .  S
C61         C539   1.556       .  S
C62          H69   1.082       .  S
C62          C63   1.380       .  D
C63          C64   1.573       .  S
C63         C782   1.534       .  S
C64          C68   1.557       .  S
C64          C66   1.545       .  S
C64          H70   1.109       .  S
C65          H71   1.083       .  S
C65          C66   1.383       .  D
C66         C399   1.512       .  S
C67          H72   1.084       .  S
C67          C68   1.355       .  D
C68         C744   1.482       .  S
C73          C74   1.549       .  S
C73          C79   1.523       .  S
C73          C77   1.555       .  S
C74          H81   1.081       .  S
C74          C75   1.376       .  D
C75          C76   1.568       .  S
C75         C847   1.506       .  S
C76          C80   1.575       .  S
C76          C78   1.542       .  S
C76          H82   1.110       .  S
C77          H83   1.086       .  S
C77          C78   1.382       .  D
C78         C357   1.508       .  S
C79          H84   1.066       .  S
C79          C80   1.356       .  D
C80         C870   1.536       .  S
C85          C86   1.500       .  S
C85          C91   1.502       .  S
C85          C89   1.538       .  S
C85         C318   1.533       .  S
C86          H93   1.076       .  S
C86          C87   1.386       .  D
C87          C88   1.585       .  S
C87         C452   1.530       .  S
C88          C92   1.587       .  S
C88          C90   1.549       .  S
C88          H94   1.110       .  S
C89          H95   1.087       .  S
C89          C90   1.352       .  D
C90         C929   1.475       .  S
C91          H96   1.085       .  S
C91          C92   1.394       .  D
C92         C961   1.563       .  S
C97          C98   1.555       .  S
C97         C103   1.545       .  S
C97         C101   1.541       .  S
C97         C499   1.579       .  S
C98         H105   1.086       .  S
C98          C99   1.384       .  D
C99         C100   1.538       .  S
C99         C480   1.505       .  S
C100        C104   1.552       .  S
C100        C102   1.555       .  S
C100        H106   1.111       .  S
C101        H107   1.081       .  S
C101        C102   1.393       .  D
C103        H108   1.077       .  S
C103        C104   1.342       .  D
C104        C330   1.478       .  S
C109        C110   1.550       .  S
C109        C115   1.542       .  S
C109        C113   1.545       .  S
C109        C820   1.565       .  S
C110        H117   1.086       .  S
C110        C111   1.378       .  D
C111        C112   1.538       .  S
C111        C346   1.494       .  S
C112        C116   1.550       .  S
C112        C114   1.557       .  S
C112        H118   1.111       .  S
C113        H119   1.078       .  S
C113        C114   1.375       .  D
C114        C801   1.568       .  S
C115        H120   1.086       .  S
C115        C116   1.370       .  D
C116        C757   1.480       .  S
C121        C122   1.552       .  S
C121        C127   1.525       .  S
C121        C125   1.567       .  S
C121        C721   1.614       .  S
C122        H129   1.087       .  S
C122        C123   1.339       .  D
C123        C124   1.557       .  S
C123        C561   1.488       .  S
C124        C128   1.564       .  S
C124        C126   1.542       .  S
C124        H130   1.109       .  S
C125        H131   1.083       .  S
C125        C126   1.396       .  D
C126        C414   1.499       .  S
C127        H132   1.078       .  S
C127        C128   1.358       .  D
C128        C582   1.519       .  S
C133        C134   1.552       .  S
C133        C139   1.496       .  S
C133        C137   1.552       .  S
C134        H141   1.086       .  S
C134        C135   1.384       .  D
C135        C136   1.549       .  S
C135        C402   1.502       .  S
C136        C140   1.555       .  S
C136        C138   1.574       .  S
C136        H142   1.110       .  S
C137        H143   1.084       .  S
C137        C138   1.373       .  D
C138        C643   1.510       .  S
C139        H144   1.064       .  S
C139        C140   1.347       .  D
C140        C678   1.492       .  S
C145        C146   1.550       .  S
C145        C151   1.538       .  S
C145        C149   1.561       .  S
C145        C253   1.622       .  S
C146        H153   1.083       .  S
C146        C147   1.377       .  D
C147        C148   1.549       .  S
C147        C560   1.504       .  S
C148        C152   1.572       .  S
C148        C150   1.544       .  S
C148        H154   1.110       .  S
C149        H155   1.081       .  S
C149        C150   1.350       .  D
C150        C429   1.485       .  S
C151        H156   1.080       .  S
C151        C152   1.375       .  D
C152        C686   1.528       .  S
C157        C158   1.536       .  S
C157        C163   1.549       .  S
C157        C161   1.549       .  S
C157        C243   1.559       .  S
C158        H165   1.084       .  S
C158        C159   1.365       .  D
C159        C160   1.541       .  S
C159        C442   1.465       .  S
C160        C164   1.538       .  S
C160        C162   1.561       .  S
C160        H166   1.112       .  S
C161        H167   1.081       .  S
C161        C162   1.393       .  D
C162        C217   1.567       .  S
C163        H168   1.082       .  S
C163        C164   1.355       .  D
C164        C679   1.489       .  S
C169        C170   1.540       .  S
C169        C175   1.552       .  S
C169        C173   1.554       .  S
C169        C825   1.604       .  S
C170        H177   1.083       .  S
C170        C171   1.360       .  D
C171        C172   1.558       .  S
C171        C760   1.484       .  S
C172        C176   1.537       .  S
C172        C174   1.570       .  S
C172        H178   1.111       .  S
C173        H179   1.081       .  S
C173        C174   1.370       .  D
C174        C229   1.561       .  S
C175        H180   1.083       .  S
C175        C176   1.367       .  D
C176        C303   1.492       .  S
C181        C182   1.522       .  S
C181        C187   1.550       .  S
C181        C185   1.552       .  S
C181        C224   1.553       .  S
C182        H189   1.086       .  S
C182        C183   1.362       .  D
C183        C184   1.568       .  S
C183        C373   1.468       .  S
C184        C188   1.539       .  S
C184        C186   1.570       .  S
C184        H190   1.111       .  S
C185        H191   1.075       .  S
C185        C186   1.365       .  D
C186        C265   1.583       .  S
C187        H192   1.086       .  S
C187        C188   1.378       .  D
C188        C481   1.496       .  S
C193        C194   1.541       .  S
C193        C199   1.533       .  S
C193        C197   1.547       .  S
C193       C1239   1.570       .  S
C194        H201   1.082       .  S
C194        C195   1.394       .  D
C195        C196   1.560       .  S
C195        C462   1.540       .  S
C196        C200   1.563       .  S
C196        C198   1.546       .  S
C196        H202   1.110       .  S
C197        H203   1.079       .  S
C197        C198   1.363       .  D
C198        C928   1.493       .  S
C199        H204   1.079       .  S
C199        C200   1.362       .  D
C200        C386   1.483       .  S
C205        C206   1.563       .  S
C205        C211   1.538       .  S
C205        C209   1.533       .  S
C205        C248   1.584       .  S
C206        H213   1.085       .  S
C206        C207   1.344       .  D
C207        C208   1.554       .  S
C207        C850   1.495       .  S
C208        C212   1.549       .  S
C208        C210   1.569       .  S
C208        H214   1.109       .  S
C209        H215   1.081       .  S
C209        C210   1.388       .  D
C210        C272   1.540       .  S
C211        H216   1.086       .  S
C211        C212   1.384       .  D
C212        C289   1.491       .  S
C217        C218   1.512       .  S
C217        C223   1.526       .  S
C217        C221   1.551       .  S
C218        H225   1.067       .  S
C218        C219   1.360       .  D
C219        C220   1.559       .  S
C219        C493   1.505       .  S
C220        C224   1.567       .  S
C220        C222   1.556       .  S
C220        H226   1.110       .  S
C221        H227   1.086       .  S
C221        C222   1.389       .  D
C222        C428   1.503       .  S
C223        H228   1.072       .  S
C223        C224   1.373       .  D
C229        C230   1.544       .  S
C229        C235   1.565       .  S
C229        C233   1.543       .  S
C230        H237   1.083       .  S
C230        C231   1.359       .  D
C231        C232   1.533       .  S
C231        C443   1.465       .  S
C232        C236   1.555       .  S
C232        C234   1.546       .  S
C232        H238   1.112       .  S
C233        H239   1.086       .  S
C233        C234   1.378       .  D
C234        C745   1.501       .  S
C235        H240   1.084       .  S
C235        C236   1.376       .  D
C236        C504   1.525       .  S
C241        C242   1.520       .  S
C241        C247   1.507       .  S
C241        C245   1.527       .  S
C241        C665   1.521       .  S
C242        H249   1.080       .  S
C242        C243   1.388       .  D
C243        C244   1.584       .  S
C244        C248   1.593       .  S
C244        C246   1.564       .  S
C244        H250   1.110       .  S
C245        H251   1.086       .  S
C245        C246   1.368       .  D
C246        C302   1.486       .  S
C247        H252   1.084       .  S
C247        C248   1.342       .  D
C253        C254   1.569       .  S
C253        C259   1.539       .  S
C253        C257   1.553       .  S
C254        H261   1.083       .  S
C254        C255   1.389       .  D
C255        C256   1.534       .  S
C255        C575   1.493       .  S
C256        C260   1.550       .  S
C256        C258   1.553       .  S
C256        H262   1.111       .  S
C257        H263   1.078       .  S
C257        C258   1.372       .  D
C258        C865   1.564       .  S
C259        H264   1.083       .  S
C259        C260   1.341       .  D
C260        C372   1.473       .  S
C265        C266   1.532       .  S
C265        C271   1.554       .  S
C265        C269   1.561       .  S
C266        H273   1.082       .  S
C266        C267   1.363       .  D
C267        C268   1.559       .  S
C267        C862   1.481       .  S
C268        C272   1.557       .  S
C268        C270   1.537       .  S
C268        H274   1.110       .  S
C269        H275   1.086       .  S
C269        C270   1.391       .  D
C270        C387   1.504       .  S
C271        H276   1.073       .  S
C271        C272   1.370       .  D
O277       Cu285   1.974       .  S
O277        C287   1.273       .  A
O278       Cu285   2.017       .  S
O278        C288   1.277       .  A
O279       Cu285   2.007       .  S
O279        C289   1.278       .  A
O280       Cu285   1.976       .  S
O280        C290   1.275       .  A
O281       Cu286   1.996       .  S
O281        C290   1.272       .  A
O282       Cu286   2.046       .  S
O282        C289   1.282       .  A
O283       Cu286   2.043       .  S
O283        C288   1.282       .  A
O284       Cu286   2.016       .  S
O284        C287   1.277       .  A
Cu285      Cu286   2.373       .  S
C287       C1341   1.424       .  S
C288       C1242   1.495       .  S
C290       C1343   1.416       .  S
O291       Cu299   1.970       .  S
O291        C301   1.273       .  A
O292       Cu299   2.006       .  S
O292        C302   1.276       .  A
O293       Cu299   2.011       .  S
O293        C303   1.279       .  A
O294       Cu299   1.988       .  S
O294        C304   1.276       .  A
O295       Cu300   2.008       .  S
O295        C304   1.274       .  A
O296       Cu300   2.049       .  S
O296        C303   1.281       .  A
O297       Cu300   2.044       .  S
O297        C302   1.283       .  A
O298       Cu300   2.024       .  S
O298        C301   1.277       .  A
Cu299      Cu300   2.374       .  S
C301       C1339   1.425       .  S
C304       C1342   1.426       .  S
O305       Cu313   2.004       .  S
O305        C315   1.274       .  A
O306       Cu313   1.955       .  S
O306        C316   1.269       .  A
O307       Cu313   2.017       .  S
O307        C317   1.281       .  A
O308       Cu313   2.056       .  S
O308        C318   1.285       .  A
O309       Cu314   1.979       .  S
O309        C318   1.276       .  A
O310       Cu314   1.980       .  S
O310        C317   1.269       .  A
O311       Cu314   2.033       .  S
O311        C316   1.280       .  A
O312       Cu314   2.041       .  S
O312        C315   1.284       .  A
Cu313      Cu314   2.373       .  S
C316       C1337   1.422       .  S
C317       C1336   1.424       .  S
O319       Cu327   1.985       .  S
O319        C329   1.270       .  A
O320       Cu327   2.005       .  S
O320        C330   1.277       .  A
O321       Cu327   2.060       .  S
O321        C331   1.287       .  A
O322       Cu327   2.022       .  S
O322        C332   1.278       .  A
O323       Cu328   1.938       .  S
O323        C332   1.267       .  A
O324       Cu328   1.989       .  S
O324        C331   1.274       .  A
O325       Cu328   2.023       .  S
O325        C330   1.280       .  A
O326       Cu328   1.984       .  S
O326        C329   1.276       .  A
Cu327      Cu328   2.379       .  S
C329       C1333   1.413       .  S
C332       C1335   1.413       .  S
O333       Cu341   2.017       .  S
O333        C343   1.276       .  A
O334       Cu341   1.976       .  S
O334        C344   1.275       .  A
O335       Cu341   1.985       .  S
O335        C345   1.275       .  A
O336       Cu341   2.026       .  S
O336        C346   1.279       .  A
O337       Cu342   2.033       .  S
O337        C346   1.281       .  A
O338       Cu342   2.011       .  S
O338        C345   1.275       .  A
O339       Cu342   2.001       .  S
O339        C344   1.273       .  A
O340       Cu342   1.998       .  S
O340        C343   1.279       .  A
Cu341      Cu342   2.377       .  S
C344       C1332   1.418       .  S
C345       C1329   1.425       .  S
O347       Cu355   2.059       .  S
O347        C357   1.285       .  A
O348       Cu355   2.038       .  S
O348        C358   1.279       .  A
O349       Cu355   2.017       .  S
O349        C359   1.276       .  A
O350       Cu355   2.037       .  S
O350        C360   1.281       .  A
O351       Cu356   2.013       .  S
O351        C360   1.280       .  A
O352       Cu356   1.979       .  S
O352        C359   1.274       .  A
O353       Cu356   1.998       .  S
O353        C358   1.275       .  A
O354       Cu356   2.030       .  S
O354        C357   1.279       .  A
Cu355      Cu356   2.372       .  S
C358       C1327   1.442       .  S
C359       C1330   1.426       .  S
O361       Cu369   1.984       .  S
O361        C371   1.271       .  A
O362       Cu369   2.020       .  S
O362        C372   1.279       .  A
O363       Cu369   2.016       .  S
O363        C373   1.280       .  A
O364       Cu369   1.983       .  S
O364        C374   1.272       .  A
O365       Cu370   1.956       .  S
O365        C374   1.271       .  A
O366       Cu370   1.991       .  S
O366        C373   1.274       .  A
O367       Cu370   1.998       .  S
O367        C372   1.276       .  A
O368       Cu370   1.969       .  S
O368        C371   1.273       .  A
Cu369      Cu370   2.384       .  S
C371       C1324   1.409       .  S
C374       C1325   1.404       .  S
O375       Cu383   1.971       .  S
O375        C385   1.274       .  A
O376       Cu383   2.028       .  S
O376        C386   1.280       .  A
O377       Cu383   2.023       .  S
O377        C387   1.278       .  A
O378       Cu383   1.977       .  S
O378        C388   1.274       .  A
O379       Cu384   2.015       .  S
O379        C388   1.276       .  A
O380       Cu384   2.045       .  S
O380        C387   1.285       .  A
O381       Cu384   2.016       .  S
O381        C386   1.278       .  A
O382       Cu384   1.983       .  S
O382        C385   1.271       .  A
Cu383      Cu384   2.377       .  S
C385       C1323   1.408       .  S
C388       C1321   1.424       .  S
O389       Cu397   2.030       .  S
O389        C399   1.281       .  A
O390       Cu397   1.976       .  S
O390        C400   1.273       .  A
O391       Cu397   1.970       .  S
O391        C401   1.273       .  A
O392       Cu397   2.028       .  S
O392        C402   1.281       .  A
O393       Cu398   2.038       .  S
O393        C402   1.282       .  A
O394       Cu398   1.998       .  S
O394        C401   1.273       .  A
O395       Cu398   2.027       .  S
O395        C400   1.278       .  A
O396       Cu398   2.058       .  S
O396        C399   1.285       .  A
Cu397      Cu398   2.374       .  S
C400       C1318   1.428       .  S
C401       C1319   1.413       .  S
O403       Cu411   2.020       .  S
O403        C413   1.277       .  A
O404       Cu411   2.043       .  S
O404        C414   1.286       .  A
O405       Cu411   1.994       .  S
O405        C415   1.275       .  A
O406       Cu411   1.987       .  S
O406        C416   1.271       .  A
O407       Cu412   1.989       .  S
O407        C416   1.277       .  A
O408       Cu412   2.027       .  S
O408        C415   1.280       .  A
O409       Cu412   2.018       .  S
O409        C414   1.276       .  A
O410       Cu412   1.977       .  S
O410        C413   1.273       .  A
Cu411      Cu412   2.377       .  S
C413       C1317   1.426       .  S
C416       C1316   1.417       .  S
O417       Cu425   2.005       .  S
O417        C427   1.274       .  A
O418       Cu425   2.042       .  S
O418        C428   1.282       .  A
O419       Cu425   2.028       .  S
O419        C429   1.282       .  A
O420       Cu425   2.012       .  S
O420        C430   1.276       .  A
O421       Cu426   1.965       .  S
O421        C430   1.272       .  A
O422       Cu426   2.011       .  S
O422        C429   1.276       .  A
O423       Cu426   2.033       .  S
O423        C428   1.281       .  A
O424       Cu426   1.987       .  S
O424        C427   1.276       .  A
Cu425      Cu426   2.376       .  S
C427       C1313   1.422       .  S
C430       C1311   1.419       .  S
O431       Cu439   1.983       .  S
O431        C441   1.275       .  A
O432       Cu439   2.003       .  S
O432        C442   1.275       .  A
O433       Cu439   2.005       .  S
O433        C443   1.275       .  A
O434       Cu439   1.987       .  S
O434        C444   1.276       .  A
O435       Cu440   2.001       .  S
O435        C444   1.273       .  A
O436       Cu440   2.005       .  S
O436        C443   1.278       .  A
O437       Cu440   2.009       .  S
O437        C442   1.278       .  A
O438       Cu440   2.007       .  S
O438        C441   1.274       .  A
Cu439      Cu440   2.382       .  S
C441       C1309   1.422       .  S
C444       C1312   1.422       .  S
C445        C446   1.494       .  S
C445        C451   1.493       .  S
C445        C449   1.557       .  S
C445       C1206   1.523       .  S
C446        H453   1.087       .  S
C446        C447   1.379       .  D
C447        C448   1.608       .  S
C447        C544   1.561       .  S
C448        C452   1.596       .  S
C448        C450   1.544       .  S
C448        H454   1.110       .  S
C449        H455   1.086       .  S
C449        C450   1.350       .  D
C450        C533   1.495       .  S
C451        H456   1.076       .  S
C451        C452   1.384       .  D
C457        C458   1.555       .  S
C457        C463   1.529       .  S
C457        C461   1.545       .  S
C458        H465   1.082       .  S
C458        C459   1.375       .  D
C459        C460   1.545       .  S
C459        C536   1.498       .  S
C460        C464   1.571       .  S
C460        C462   1.572       .  S
C460        H466   1.110       .  S
C461        H467   1.078       .  S
C461        C462   1.365       .  D
C463        H468   1.083       .  S
C463        C464   1.348       .  D
C464       C1233   1.474       .  S
O469       Cu477   1.957       .  S
O469        C479   1.269       .  A
O470       Cu477   2.016   1_545  S
O470        C480   1.275       .  A
O471       Cu477   2.046       .  S
O471        C481   1.284       .  A
O472       Cu477   1.998   1_545  S
O472        C482   1.279       .  A
O473       Cu478   1.994   1_545  S
O473        C482   1.271       .  A
O474       Cu478   2.016       .  S
O474        C481   1.276       .  A
O475       Cu478   2.067   1_545  S
O475        C480   1.286       .  A
O476       Cu478   2.051       .  S
O476        C479   1.282       .  A
Cu477      Cu478   2.371       .  S
C479       C1308   1.433       .  S
C482       C1305   1.424       .  S
O483       Cu491   2.068   1_556  S
O483        C493   1.281       .  A
O484       Cu491   2.015       .  S
O484        C494   1.280       .  A
O485       Cu491   2.003   1_556  S
O485        C495   1.277       .  A
O486       Cu491   2.054       .  S
O486        C496   1.283       .  A
O487       Cu492   2.033       .  S
O487        C496   1.276       .  A
O488       Cu492   2.031   1_556  S
O488        C495   1.277       .  A
O489       Cu492   1.988       .  S
O489        C494   1.270       .  A
O490       Cu492   1.977   1_556  S
O490        C493   1.278       .  A
Cu491      Cu492   2.366       .  S
C494       C1303   1.428       .  S
C495       C1307   1.440       .  S
C497        C498   1.506       .  S
C497        C503   1.554       .  S
C497        C501   1.531       .  S
C497       C1192   1.533       .  S
C498        H505   1.075       .  S
C498        C499   1.375       .  D
C499        C500   1.585       .  S
C500        C504   1.561       .  S
C500        C502   1.560       .  S
C500        H506   1.110       .  S
C501        H507   1.087       .  S
C501        C502   1.356       .  D
C502        C521   1.481       .  S
C503        H508   1.086       .  S
C503        C504   1.384       .  D
O509       Cu517   1.961   1_556  S
O509        C519   1.272       .  A
O510       Cu517   2.001       .  S
O510        C520   1.277       .  A
O511       Cu517   1.996   1_556  S
O511        C521   1.275       .  A
O512       Cu517   1.954       .  S
O512        C522   1.271       .  A
O513       Cu518   2.005       .  S
O513        C522   1.275       .  A
O514       Cu518   2.052   1_556  S
O514        C521   1.284       .  A
O515       Cu518   2.059       .  S
O515        C520   1.283       .  A
O516       Cu518   2.015   1_556  S
O516        C519   1.276       .  A
Cu517      Cu518   2.378       .  S
C519       C1306   1.418       .  S
C520        C542   1.490       .  S
C522       C1302   1.413       .  S
O523       Cu531   2.066       .  S
O523        C533   1.283       .  A
O524       Cu531   2.033   1_565  S
O524        C534   1.278       .  A
O525       Cu531   1.980       .  S
O525        C535   1.266       .  A
O526       Cu531   2.031   1_565  S
O526        C536   1.275       .  A
O527       Cu532   2.035   1_565  S
O527        C536   1.283       .  A
O528       Cu532   2.002       .  S
O528        C535   1.278       .  A
O529       Cu532   1.953   1_565  S
O529        C534   1.268       .  A
O530       Cu532   2.005       .  S
O530        C533   1.276       .  A
Cu531      Cu532   2.366       .  S
C534       C1304   1.422       .  S
C535       C1301   1.420       .  S
C537        C538   1.558       .  S
C537        C543   1.494       .  S
C537        C541   1.510       .  S
C537       C1222   1.515       .  S
C538        H545   1.083       .  S
C538        C539   1.376       .  D
C539        C540   1.555       .  S
C540        C544   1.589       .  S
C540        C542   1.594       .  S
C540        H546   1.110       .  S
C541        H547   1.087       .  S
C541        C542   1.360       .  D
C543        H548   1.087       .  S
C543        C544   1.377       .  D
O549       Cu557   1.969       .  S
O549        C559   1.273       .  A
O550       Cu557   2.018   1_556  S
O550        C560   1.279       .  A
O551       Cu557   2.011       .  S
O551        C561   1.277       .  A
O552       Cu557   1.971   1_556  S
O552        C562   1.273       .  A
O553       Cu558   2.016   1_556  S
O553        C562   1.276       .  A
O554       Cu558   2.043       .  S
O554        C561   1.283       .  A
O555       Cu558   2.062   1_556  S
O555        C560   1.284       .  A
O556       Cu558   2.014       .  S
O556        C559   1.275       .  A
Cu557      Cu558   2.375       .  S
C559       C1298   1.421       .  S
C562       C1300   1.422       .  S
O563       Cu571   1.994   1_565  S
O563        C573   1.277       .  A
O564       Cu571   2.032       .  S
O564        C574   1.280       .  A
O565       Cu571   2.015   1_565  S
O565        C575   1.276       .  A
O566       Cu571   1.979       .  S
O566        C576   1.274       .  A
O567       Cu572   2.024       .  S
O567        C576   1.277       .  A
O568       Cu572   2.032   1_565  S
O568        C575   1.284       .  A
O569       Cu572   2.005       .  S
O569        C574   1.277       .  A
O570       Cu572   1.999   1_565  S
O570        C573   1.273       .  A
Cu571      Cu572   2.377       .  S
C573       C1299   1.424       .  S
C576       C1295   1.429       .  S
C577        C578   1.537       .  S
C577        C583   1.554       .  S
C577        C581   1.535       .  S
C577        C987   1.565       .  S
C578        H585   1.082       .  S
C578        C579   1.362       .  D
C579        C580   1.533       .  S
C579        C602   1.453       .  S
C580        C584   1.543       .  S
C580        C582   1.546       .  S
C580        H586   1.110       .  S
C581        H587   1.083       .  S
C581        C582   1.389       .  D
C583        H588   1.082       .  S
C583        C584   1.375       .  D
C584       C1236   1.502       .  S
O589       Cu597   1.990   1_545  S
O589        C599   1.278       .  A
O590       Cu597   1.995       .  S
O590        C600   1.273       .  A
O591       Cu597   2.010   1_545  S
O591        C601   1.274       .  A
O592       Cu597   1.950       .  S
O592        C602   1.268       .  A
O593       Cu598   2.028       .  S
O593        C602   1.279       .  A
O594       Cu598   1.989   1_545  S
O594        C601   1.276       .  A
O595       Cu598   1.997       .  S
O595        C600   1.278       .  A
O596       Cu598   2.021   1_545  S
O596        C599   1.274       .  A
Cu597      Cu598   2.357       .  S
C599       C1157   1.524       .  S
C600       C1297   1.424       .  S
C601       C1293   1.426       .  S
O603       Cu611   1.984   1_556  S
O603        C613   1.275       .  A
O604       Cu611   2.011       .  S
O604        C614   1.279       .  A
O605       Cu611   2.003   1_556  S
O605        C615   1.276       .  A
O606       Cu611   1.974       .  S
O606        C616   1.273       .  A
O607       Cu612   2.018       .  S
O607        C616   1.276       .  A
O608       Cu612   2.021   1_556  S
O608        C615   1.280       .  A
O609       Cu612   2.025       .  S
O609        C614   1.280       .  A
O610       Cu612   2.025   1_556  S
O610        C613   1.277       .  A
Cu611      Cu612   2.376       .  S
C613       C1296   1.431       .  S
C614       C1176   1.489       .  S
C615        C619   1.481       .  S
C616       C1294   1.424       .  S
C617        C618   1.541       .  S
C617        C623   1.537       .  S
C617        C621   1.539       .  S
C618        H625   1.086       .  S
C618        C619   1.381       .  D
C619        C620   1.543       .  S
C620        C624   1.564       .  S
C620        C622   1.563       .  S
C620        H626   1.111       .  S
C621        H627   1.058       .  S
C621        C622   1.371       .  D
C622        C808   1.552       .  S
C623        H628   1.086       .  S
C623        C624   1.366       .  D
C624       C1193   1.491       .  S
C629        C630   1.540       .  S
C629        C635   1.519       .  S
C629        C633   1.539       .  S
C629       C1155   1.504       .  S
C630        H637   1.081       .  S
C630        C631   1.376       .  D
C631        C632   1.573       .  S
C632        C636   1.566       .  S
C632        C634   1.571       .  S
C632        H638   1.110       .  S
C633        H639   1.088       .  S
C633        C634   1.344       .  D
C634        C717   1.503       .  S
C635        H640   1.086       .  S
C635        C636   1.363       .  D
C636        C726   1.493       .  S
C641        C642   1.523       .  S
C641        C647   1.565       .  S
C641        C645   1.544       .  S
C641       C1125   1.533       .  S
C642        H649   1.083       .  S
C642        C643   1.349       .  D
C643        C644   1.569       .  S
C644        C648   1.574       .  S
C644        C646   1.573       .  S
C644        H650   1.111       .  S
C645        H651   1.086       .  S
C645        C646   1.372       .  D
C646        C720   1.515       .  S
C647        H652   1.086       .  S
C647        C648   1.377       .  D
C648       C1244   1.536       .  S
O653       Cu661   2.015       .  S
O653        C663   1.276       .  A
O654       Cu661   1.983   1_455  S
O654        C664   1.272       .  A
O655       Cu661   1.967       .  S
O655        C665   1.279       .  A
O656       Cu661   1.989   1_455  S
O656        C666   1.271       .  A
O657       Cu662   2.000   1_455  S
O657        C666   1.278       .  A
O658       Cu662   2.028       .  S
O658        C665   1.276       .  A
O659       Cu662   1.999   1_455  S
O659        C664   1.278       .  A
O660       Cu662   1.967       .  S
O660        C663   1.272       .  A
Cu661      Cu662   2.370       .  S
C663       C1291   1.420       .  S
C666       C1290   1.422       .  S
O667       Cu675   1.995   1_556  S
O667        C677   1.277       .  A
O668       Cu675   2.034       .  S
O668        C678   1.276       .  A
O669       Cu675   2.030   1_556  S
O669        C679   1.281       .  A
O670       Cu675   1.984       .  S
O670        C680   1.276       .  A
O671       Cu676   1.998       .  S
O671        C680   1.273       .  A
O672       Cu676   2.003   1_556  S
O672        C679   1.273       .  A
O673       Cu676   1.979       .  S
O673        C678   1.281       .  A
O674       Cu676   1.992   1_556  S
O674        C677   1.272       .  A
Cu675      Cu676   2.373       .  S
C677       C1292   1.422       .  S
C680       C1287   1.420       .  S
C681        C682   1.558       .  S
C681        C687   1.530       .  S
C681        C685   1.550       .  S
C682        H689   1.084       .  S
C682        C683   1.371       .  D
C683        C684   1.524       .  S
C683        C704   1.475       .  S
C684        C688   1.551       .  S
C684        C686   1.550       .  S
C684        H690   1.110       .  S
C685        H691   1.082       .  S
C685        C686   1.381       .  D
C687        H692   1.084       .  S
C687        C688   1.352       .  D
C688       C1141   1.458       .  S
O693       Cu701   1.970       .  S
O693        C703   1.274       .  A
O694       Cu701   2.017   1_556  S
O694        C704   1.281       .  A
O695       Cu701   2.044       .  S
O695        C705   1.275       .  A
O696       Cu701   1.980   1_556  S
O696        C706   1.275       .  A
O697       Cu702   1.998   1_556  S
O697        C706   1.274       .  A
O698       Cu702   1.994       .  S
O698        C705   1.286       .  A
O699       Cu702   2.004   1_556  S
O699        C704   1.275       .  A
O700       Cu702   1.996       .  S
O700        C703   1.272       .  A
Cu701      Cu702   2.378       .  S
C703       C1285   1.415       .  S
C705        C723   1.504       .  S
C706       C1289   1.418       .  S
O707       Cu715   2.018   1_455  S
O707        C717   1.279       .  A
O708       Cu715   1.978       .  S
O708        C718   1.274       .  A
O709       Cu715   1.994   1_455  S
O709        C719   1.277       .  A
O710       Cu715   2.050       .  S
O710        C720   1.281       .  A
O711       Cu716   2.045       .  S
O711        C720   1.282       .  A
O712       Cu716   1.985   1_455  S
O712        C719   1.270       .  A
O713       Cu716   2.004       .  S
O713        C718   1.274       .  A
O714       Cu716   2.057   1_455  S
O714        C717   1.282       .  A
Cu715      Cu716   2.371       .  S
C718       C1288   1.420       .  S
C719       C1286   1.418       .  S
C721        C722   1.524       .  S
C721        C727   1.540       .  S
C721        C725   1.555       .  S
C722        H729   1.085       .  S
C722        C723   1.341       .  D
C723        C724   1.558       .  S
C724        C728   1.535       .  S
C724        C726   1.568       .  S
C724        H730   1.111       .  S
C725        H731   1.085       .  S
C725        C726   1.382       .  D
C727        H732   1.083       .  S
C727        C728   1.374       .  D
C728       C1113   1.481       .  S
O733       Cu741   1.990   1_556  S
O733        C743   1.276       .  A
O734       Cu741   2.024       .  S
O734        C744   1.279       .  A
O735       Cu741   2.018   1_556  S
O735        C745   1.278       .  A
O736       Cu741   1.971       .  S
O736        C746   1.272       .  A
O737       Cu742   2.027       .  S
O737        C746   1.278       .  A
O738       Cu742   2.058   1_556  S
O738        C745   1.285       .  A
O739       Cu742   2.016       .  S
O739        C744   1.279       .  A
O740       Cu742   2.007   1_556  S
O740        C743   1.274       .  A
Cu741      Cu742   2.376       .  S
C743       C1284   1.425       .  S
C746       C1281   1.427       .  S
O747       Cu755   2.034   1_455  S
O747        C757   1.282       .  A
O748       Cu755   2.010       .  S
O748        C758   1.275       .  A
O749       Cu755   2.022   1_455  S
O749        C759   1.276       .  A
O750       Cu755   2.042       .  S
O750        C760   1.282       .  A
O751       Cu756   2.011       .  S
O751        C760   1.277       .  A
O752       Cu756   1.987   1_455  S
O752        C759   1.275       .  A
O753       Cu756   1.978       .  S
O753        C758   1.274       .  A
O754       Cu756   2.012   1_455  S
O754        C757   1.275       .  A
Cu755      Cu756   2.378       .  S
C758       C1283   1.423       .  S
C759       C1279   1.429       .  S
O761       Cu769   1.995       .  S
O761        C771   1.276       .  A
O762       Cu769   2.023   1_455  S
O762        C772   1.278       .  A
O763       Cu769   2.021       .  S
O763        C773   1.277       .  A
O764       Cu769   1.983   1_455  S
O764        C774   1.274       .  A
O765       Cu770   2.025   1_455  S
O765        C774   1.277       .  A
O766       Cu770   2.037       .  S
O766        C773   1.282       .  A
O767       Cu770   2.029   1_455  S
O767        C772   1.280       .  A
O768       Cu770   2.014       .  S
O768        C771   1.275       .  A
Cu769      Cu770   2.376       .  S
C771       C1282   1.430       .  S
C772       C1082   1.486       .  S
C773        C777   1.486       .  S
C774       C1278   1.431       .  S
C775        C776   1.540       .  S
C775        C781   1.541       .  S
C775        C779   1.547       .  S
C775        C966   1.564       .  S
C776        H783   1.079       .  S
C776        C777   1.366       .  D
C777        C778   1.552       .  S
C778        C782   1.562       .  S
C778        C780   1.531       .  S
C778        H784   1.109       .  S
C779        H785   1.081       .  S
C779        C780   1.366       .  D
C780       C1128   1.477       .  S
C781        H786   1.082       .  S
C781        C782   1.385       .  D
O787       Cu795   2.017       .  S
O787        C797   1.279       .  A
O788       Cu795   2.014   1_556  S
O788        C798   1.275       .  A
O789       Cu795   2.028       .  S
O789        C799   1.277       .  A
O790       Cu795   2.048   1_556  S
O790        C800   1.285       .  A
O791       Cu796   2.027   1_556  S
O791        C800   1.279       .  A
O792       Cu796   1.987       .  S
O792        C799   1.275       .  A
O793       Cu796   1.983   1_556  S
O793        C798   1.275       .  A
O794       Cu796   2.015       .  S
O794        C797   1.276       .  A
Cu795      Cu796   2.375       .  S
C797       C1096   1.477       .  S
C798       C1280   1.427       .  S
C799       C1277   1.432       .  S
C800        C803   1.504       .  S
C801        C802   1.553       .  S
C801        C807   1.533       .  S
C801        C805   1.535       .  S
C802        H809   1.086       .  S
C802        C803   1.385       .  D
C803        C804   1.543       .  S
C804        C808   1.564       .  S
C804        C806   1.560       .  S
C804        H810   1.111       .  S
C805        H811   1.086       .  S
C805        C806   1.368       .  D
C806       C1140   1.473       .  S
C807        H812   1.074       .  S
C807        C808   1.372       .  D
C813        C814   1.550       .  S
C813        C819   1.549       .  S
C813        C817   1.552       .  S
C813        C905   1.619       .  S
C814        H821   1.082       .  S
C814        C815   1.369       .  D
C815        C816   1.534       .  S
C815        C901   1.480       .  S
C816        C820   1.564       .  S
C816        C818   1.546       .  S
C816        H822   1.111       .  S
C817        H823   1.081       .  S
C817        C818   1.354       .  D
C818       C1048   1.488       .  S
C819        H824   1.075       .  S
C819        C820   1.382       .  D
C825        C826   1.546       .  S
C825        C831   1.547       .  S
C825        C829   1.539       .  S
C826        H833   1.083       .  S
C826        C827   1.368       .  D
C827        C828   1.537       .  S
C827       C1075   1.471       .  S
C828        C832   1.546       .  S
C828        C830   1.545       .  S
C828        H834   1.110       .  S
C829        H835   1.078       .  S
C829        C830   1.373       .  D
C831        H836   1.082       .  S
C831        C832   1.367       .  D
C832        C904   1.475       .  S
O837       Cu845   2.062   1_455  S
O837        C847   1.285       .  A
O838       Cu845   2.016       .  S
O838        C848   1.276       .  A
O839       Cu845   2.013   1_455  S
O839        C849   1.275       .  A
O840       Cu845   2.040       .  S
O840        C850   1.282       .  A
O841       Cu846   2.029       .  S
O841        C850   1.280       .  A
O842       Cu846   1.989   1_455  S
O842        C849   1.276       .  A
O843       Cu846   1.980       .  S
O843        C848   1.274       .  A
O844       Cu846   2.040   1_455  S
O844        C847   1.279       .  A
Cu845      Cu846   2.375       .  S
C848       C1275   1.426       .  S
C849       C1274   1.427       .  S
O851       Cu859   2.005   1_545  S
O851        C861   1.274       .  A
O852       Cu859   2.027       .  S
O852        C862   1.281       .  A
O853       Cu859   2.040   1_545  S
O853        C863   1.282       .  A
O854       Cu859   2.012       .  S
O854        C864   1.275       .  A
O855       Cu860   1.989       .  S
O855        C864   1.276       .  A
O856       Cu860   2.030   1_545  S
O856        C863   1.278       .  A
O857       Cu860   2.015       .  S
O857        C862   1.277       .  A
O858       Cu860   1.978   1_545  S
O858        C861   1.275       .  A
Cu859      Cu860   2.377       .  S
C861       C1272   1.421       .  S
C864       C1276   1.427       .  S
C865        C866   1.543       .  S
C865        C871   1.534       .  S
C865        C869   1.545       .  S
C866        H873   1.085       .  S
C866        C867   1.365       .  D
C867        C868   1.550       .  S
C867        C889   1.478       .  S
C868        C872   1.538       .  S
C868        C870   1.540       .  S
C868        H874   1.111       .  S
C869        H875   1.074       .  S
C869        C870   1.388       .  D
C871        H876   1.087       .  S
C871        C872   1.374       .  D
C872       C1031   1.469       .  S
O877       Cu885   2.016   1_565  S
O877        C887   1.276       .  A
O878       Cu885   2.024       .  S
O878        C888   1.282       .  A
O879       Cu885   2.017   1_565  S
O879        C889   1.278       .  A
O880       Cu885   2.018       .  S
O880        C890   1.275       .  A
O881       Cu886   1.997       .  S
O881        C890   1.277       .  A
O882       Cu886   2.022   1_565  S
O882        C889   1.278       .  A
O883       Cu886   2.004       .  S
O883        C888   1.276       .  A
O884       Cu886   1.978   1_565  S
O884        C887   1.274       .  A
Cu885      Cu886   2.377       .  S
C887       C1273   1.425       .  S
C888        C907   1.486       .  S
C890       C1270   1.432       .  S
O891       Cu899   2.008   1_455  S
O891        C901   1.279       .  A
O892       Cu899   1.987       .  S
O892        C902   1.276       .  A
O893       Cu899   1.969   1_455  S
O893        C903   1.272       .  A
O894       Cu899   2.003       .  S
O894        C904   1.273       .  A
O895       Cu900   2.022       .  S
O895        C904   1.283       .  A
O896       Cu900   2.029   1_455  S
O896        C903   1.278       .  A
O897       Cu900   2.000       .  S
O897        C902   1.273       .  A
O898       Cu900   2.013   1_455  S
O898        C901   1.277       .  A
Cu899      Cu900   2.378       .  S
C902       C1271   1.421       .  S
C903       C1269   1.428       .  S
C905        C906   1.564       .  S
C905        C911   1.551       .  S
C905        C909   1.546       .  S
C906        H913   1.081       .  S
C906        C907   1.378       .  D
C907        C908   1.531       .  S
C908        C912   1.546       .  S
C908        C910   1.550       .  S
C908        H914   1.111       .  S
C909        H915   1.076       .  S
C909        C910   1.376       .  D
C911        H916   1.082       .  S
C911        C912   1.352       .  D
C912       C1061   1.476       .  S
O917       Cu925   1.994       .  S
O917        C927   1.269       .  A
O918       Cu925   2.043   1_565  S
O918        C928   1.277       .  A
O919       Cu925   2.032       .  S
O919        C929   1.278       .  A
O920       Cu925   2.014   1_565  S
O920        C930   1.274       .  A
O921       Cu926   1.964   1_565  S
O921        C930   1.271       .  A
O922       Cu926   1.994       .  S
O922        C929   1.275       .  A
O923       Cu926   2.021   1_565  S
O923        C928   1.280       .  A
O924       Cu926   1.993       .  S
O924        C927   1.276       .  A
Cu925      Cu926   2.371       .  S
C927       C1265   1.422       .  S
C930       C1267   1.418       .  S
O931       Cu939   2.008   1_455  S
O931        C941   1.279       .  A
O932       Cu939   2.045       .  S
O932        C942   1.281       .  A
O933       Cu939   2.046   1_455  S
O933        C943   1.277       .  A
O934       Cu939   2.004       .  S
O934        C944   1.279       .  A
O935       Cu940   1.981       .  S
O935        C944   1.270       .  A
O936       Cu940   1.958   1_455  S
O936        C943   1.276       .  A
O937       Cu940   1.980       .  S
O937        C942   1.277       .  A
O938       Cu940   1.989   1_455  S
O938        C941   1.270       .  A
Cu939      Cu940   2.372       .  S
C941       C1263   1.426       .  S
C942       C1237   1.526       .  S
C944       C1268   1.421       .  S
O945       Cu953   1.984   1_455  S
O945        C955   1.274       .  A
O946       Cu953   1.961       .  S
O946        C956   1.272       .  A
O947       Cu953   1.975   1_455  S
O947        C957   1.274       .  A
O948       Cu953   2.005       .  S
O948        C958   1.277       .  A
O949       Cu954   2.023       .  S
O949        C958   1.278       .  A
O950       Cu954   2.010   1_455  S
O950        C957   1.275       .  A
O951       Cu954   2.006       .  S
O951        C956   1.275       .  A
O952       Cu954   2.026   1_455  S
O952        C955   1.279       .  A
Cu953      Cu954   2.378       .  S
C955        C999   1.475       .  S
C956       C1266   1.416       .  S
C957       C1261   1.421       .  S
C958        C964   1.476       .  S
C959        C960   1.510       .  S
C959        C965   1.554       .  S
C959        C963   1.514       .  S
C959       C1074   1.526       .  S
C960        H967   1.088       .  S
C960        C961   1.349       .  D
C961        C962   1.595       .  S
C962        C966   1.543       .  S
C962        C964   1.600       .  S
C962        H968   1.110       .  S
C963        H969   1.086       .  S
C963        C964   1.380       .  D
C965        H970   1.080       .  S
C965        C966   1.375       .  D
O971       Cu979   1.983   1_545  S
O971        C981   1.276       .  A
O972       Cu979   2.016       .  S
O972        C982   1.282       .  A
O973       Cu979   2.011   1_545  S
O973        C983   1.274       .  A
O974       Cu979   1.959       .  S
O974        C984   1.271       .  A
O975       Cu980   2.014       .  S
O975        C984   1.276       .  A
O976       Cu980   2.056   1_545  S
O976        C983   1.281       .  A
O977       Cu980   2.009       .  S
O977        C982   1.274       .  A
O978       Cu980   2.005   1_545  S
O978        C981   1.273       .  A
Cu979      Cu980   2.372       .  S
C981       C1262   1.423       .  S
C982        C990   1.478       .  S
C983       C1016   1.507       .  S
C984       C1264   1.419       .  S
C985        C986   1.548       .  S
C985        C991   1.509       .  S
C985        C989   1.527       .  S
C985       C1034   1.507       .  S
C986        H993   1.081       .  S
C986        C987   1.381       .  D
C987        C988   1.567       .  S
C988        C992   1.578       .  S
C988        C990   1.563       .  S
C988        H994   1.110       .  S
C989        H995   1.088       .  S
C989        C990   1.341       .  D
C991        H996   1.085       .  S
C991        C992   1.366       .  D
C997        C998   1.553       .  S
C997       C1003   1.555       .  S
C997       C1001   1.544       .  S
C997       C1009   1.620       .  S
C998       H1005   1.082       .  S
C998        C999   1.366       .  D
C999       C1000   1.524       .  S
C1000      C1004   1.551       .  S
C1000      C1002   1.548       .  S
C1000      H1006   1.111       .  S
C1001      H1007   1.081       .  S
C1001      C1002   1.381       .  D
C1002      C1077   1.549       .  S
C1003      H1008   1.082       .  S
C1003      C1004   1.361       .  D
C1004      C1045   1.487       .  S
C1009      C1010   1.536       .  S
C1009      C1015   1.564       .  S
C1009      C1013   1.574       .  S
C1010      H1017   1.081       .  S
C1010      C1011   1.352       .  D
C1011      C1012   1.553       .  S
C1011      C1060   1.470       .  S
C1012      C1016   1.536       .  S
C1012      C1014   1.555       .  S
C1012      H1018   1.111       .  S
C1013      H1019   1.084       .  S
C1013      C1014   1.381       .  D
C1014      C1164   1.523       .  S
C1015      H1020   1.080       .  S
C1015      C1016   1.366       .  D
O1021     Cu1029   2.003       .  S
O1021      C1031   1.278       .  A
O1022     Cu1029   1.975       .  S
O1022      C1032   1.274       .  A
O1023     Cu1029   1.966       .  S
O1023      C1033   1.273       .  A
O1024     Cu1029   1.997       .  S
O1024      C1034   1.275       .  A
O1025     Cu1030   1.968       .  S
O1025      C1034   1.278       .  A
O1026     Cu1030   1.980       .  S
O1026      C1033   1.271       .  A
O1027     Cu1030   2.004       .  S
O1027      C1032   1.274       .  A
O1028     Cu1030   1.991       .  S
O1028      C1031   1.276       .  A
Cu1029    Cu1030   2.380       .  S
C1032      C1260   1.418       .  S
C1033      C1326   1.405       .  S
O1035     Cu1043   2.029       .  S
O1035      C1045   1.279       .  A
O1036     Cu1043   1.992       .  S
O1036      C1046   1.271       .  A
O1037     Cu1043   2.020       .  S
O1037      C1047   1.277       .  A
O1038     Cu1043   2.045       .  S
O1038      C1048   1.285       .  A
O1039     Cu1044   2.003       .  S
O1039      C1048   1.274       .  A
O1040     Cu1044   1.957       .  S
O1040      C1047   1.271       .  A
O1041     Cu1044   1.991       .  S
O1041      C1046   1.278       .  A
O1042     Cu1044   2.029       .  S
O1042      C1045   1.280       .  A
Cu1043    Cu1044   2.378       .  S
C1046      C1331   1.420       .  S
C1047      C1257   1.419       .  S
O1049     Cu1057   1.961       .  S
O1049      C1059   1.272       .  A
O1050     Cu1057   2.002       .  S
O1050      C1060   1.276       .  A
O1051     Cu1057   1.994       .  S
O1051      C1061   1.274       .  A
O1052     Cu1057   1.959       .  S
O1052      C1062   1.271       .  A
O1053     Cu1058   2.007       .  S
O1053      C1062   1.276       .  A
O1054     Cu1058   2.032       .  S
O1054      C1061   1.282       .  A
O1055     Cu1058   2.007       .  S
O1055      C1060   1.279       .  A
O1056     Cu1058   1.993       .  S
O1056      C1059   1.273       .  A
Cu1057    Cu1058   2.382       .  S
C1059      C1334   1.410       .  S
C1062      C1255   1.415       .  S
O1063     Cu1071   1.996       .  S
O1063      C1073   1.272       .  A
O1064     Cu1071   1.979       .  S
O1064      C1074   1.282       .  A
O1065     Cu1071   2.012       .  S
O1065      C1075   1.277       .  A
O1066     Cu1071   2.031       .  S
O1066      C1076   1.278       .  A
O1067     Cu1072   1.981       .  S
O1067      C1076   1.273       .  A
O1068     Cu1072   1.999       .  S
O1068      C1075   1.278       .  A
O1069     Cu1072   2.038       .  S
O1069      C1074   1.277       .  A
O1070     Cu1072   2.004       .  S
O1070      C1073   1.278       .  A
Cu1071    Cu1072   2.373       .  S
C1073      C1340   1.427       .  S
C1076      C1253   1.432       .  S
C1077      C1078   1.532       .  S
C1077      C1083   1.531       .  S
C1077      C1081   1.545       .  S
C1078      H1085   1.087       .  S
C1078      C1079   1.374       .  D
C1079      C1080   1.545       .  S
C1079      C1154   1.483       .  S
C1080      C1084   1.563       .  S
C1080      C1082   1.557       .  S
C1080      H1086   1.110       .  S
C1081      H1087   1.077       .  S
C1081      C1082   1.365       .  D
C1083      H1088   1.077       .  S
C1083      C1084   1.368       .  D
C1084      C1094   1.534       .  S
C1089      C1090   1.549       .  S
C1089      C1095   1.538       .  S
C1089      C1093   1.543       .  S
C1089      C1174   1.571       .  S
C1090      H1097   1.086       .  S
C1090      C1091   1.386       .  D
C1091      C1092   1.537       .  S
C1091      C1112   1.488       .  S
C1092      C1096   1.552       .  S
C1092      C1094   1.550       .  S
C1092      H1098   1.110       .  S
C1093      H1099   1.066       .  S
C1093      C1094   1.375       .  D
C1095      H1100   1.085       .  S
C1095      C1096   1.362       .  D
O1101     Cu1109   2.009       .  S
O1101      C1111   1.276       .  A
O1102     Cu1109   2.037       .  S
O1102      C1112   1.283       .  A
O1103     Cu1109   2.013       .  S
O1103      C1113   1.277       .  A
O1104     Cu1109   1.989       .  S
O1104      C1114   1.273       .  A
O1105     Cu1110   1.957       .  S
O1105      C1114   1.271       .  A
O1106     Cu1110   1.990       .  S
O1106      C1113   1.279       .  A
O1107     Cu1110   1.999       .  S
O1107      C1112   1.275       .  A
O1108     Cu1110   1.958       .  S
O1108      C1111   1.271       .  A
Cu1109    Cu1110   2.381       .  S
C1111      C1315   1.413       .  S
C1114      C1251   1.405       .  S
O1115     Cu1123   2.025       .  S
O1115      C1125   1.286       .  A
O1116     Cu1123   2.027       .  S
O1116      C1126   1.278       .  A
O1117     Cu1123   1.992       .  S
O1117      C1127   1.272       .  A
O1118     Cu1123   2.007       .  S
O1118      C1128   1.275       .  A
O1119     Cu1124   2.014       .  S
O1119      C1128   1.281       .  A
O1120     Cu1124   1.978       .  S
O1120      C1127   1.275       .  A
O1121     Cu1124   1.986       .  S
O1121      C1126   1.274       .  A
O1122     Cu1124   2.026       .  S
O1122      C1125   1.277       .  A
Cu1123    Cu1124   2.376       .  S
C1126      C1254   1.432       .  S
C1127      C1344   1.416       .  S
O1129     Cu1137   1.963       .  S
O1129      C1139   1.271       .  A
O1130     Cu1137   1.994       .  S
O1130      C1140   1.273       .  A
O1131     Cu1137   1.986       .  S
O1131      C1141   1.274       .  A
O1132     Cu1137   1.964       .  S
O1132      C1142   1.273       .  A
O1133     Cu1138   1.997       .  S
O1133      C1142   1.273       .  A
O1134     Cu1138   2.005       .  S
O1134      C1141   1.277       .  A
O1135     Cu1138   2.033       .  S
O1135      C1140   1.282       .  A
O1136     Cu1138   2.014       .  S
O1136      C1139   1.276       .  A
Cu1137    Cu1138   2.383       .  S
C1139      C1314   1.419       .  S
C1142      C1249   1.413       .  S
O1143     Cu1151   1.969       .  S
O1143      C1153   1.270       .  A
O1144     Cu1151   2.002       .  S
O1144      C1154   1.276       .  A
O1145     Cu1151   2.020       .  S
O1145      C1155   1.279       .  A
O1146     Cu1151   2.009       .  S
O1146      C1156   1.280       .  A
O1147     Cu1152   1.985       .  S
O1147      C1156   1.270       .  A
O1148     Cu1152   1.963       .  S
O1148      C1155   1.273       .  A
O1149     Cu1152   2.029       .  S
O1149      C1154   1.281       .  A
O1150     Cu1152   2.061       .  S
O1150      C1153   1.283       .  A
Cu1151    Cu1152   2.368       .  S
C1153      C1328   1.439       .  S
C1156      C1258   1.425       .  S
C1157      C1158   1.528       .  S
C1157      C1163   1.502       .  S
C1157      C1161   1.506       .  S
C1158      H1165   1.079       .  S
C1158      C1159   1.380       .  D
C1159      C1160   1.572       .  S
C1159      C1169   1.542       .  S
C1160      C1164   1.595       .  S
C1160      C1162   1.569       .  S
C1160      H1166   1.110       .  S
C1161      H1167   1.082       .  S
C1161      C1162   1.347       .  D
C1162      C1207   1.511       .  S
C1163      H1168   1.051       .  S
C1163      C1164   1.368       .  D
C1169      C1170   1.532       .  S
C1169      C1175   1.557       .  S
C1169      C1173   1.524       .  S
C1170      H1177   1.086       .  S
C1170      C1171   1.359       .  D
C1171      C1172   1.560       .  S
C1171      C1219   1.488       .  S
C1172      C1176   1.535       .  S
C1172      C1174   1.575       .  S
C1172      H1178   1.111       .  S
C1173      H1179   1.077       .  S
C1173      C1174   1.381       .  D
C1175      H1180   1.081       .  S
C1175      C1176   1.371       .  D
O1181     Cu1189   1.995       .  S
O1181      C1191   1.278       .  A
O1182     Cu1189   2.047       .  S
O1182      C1192   1.282       .  A
O1183     Cu1189   2.023       .  S
O1183      C1193   1.277       .  A
O1184     Cu1189   1.959       .  S
O1184      C1194   1.270       .  A
O1185     Cu1190   2.012       .  S
O1185      C1194   1.276       .  A
O1186     Cu1190   2.037       .  S
O1186      C1193   1.282       .  A
O1187     Cu1190   2.003       .  S
O1187      C1192   1.281       .  A
O1188     Cu1190   1.984       .  S
O1188      C1191   1.270       .  A
Cu1189    Cu1190   2.372       .  S
C1191      C1250   1.417       .  S
C1194      C1310   1.419       .  S
O1195     Cu1203   2.001       .  S
O1195      C1205   1.278       .  A
O1196     Cu1203   2.074       .  S
O1196      C1206   1.289       .  A
O1197     Cu1203   2.077       .  S
O1197      C1207   1.277       .  A
O1198     Cu1203   1.992       .  S
O1198      C1208   1.276       .  A
O1199     Cu1204   2.005       .  S
O1199      C1208   1.276       .  A
O1200     Cu1204   1.997       .  S
O1200      C1207   1.278       .  A
O1201     Cu1204   1.908       .  S
O1201      C1206   1.265       .  A
O1202     Cu1204   1.988       .  S
O1202      C1205   1.269       .  A
Cu1203    Cu1204   2.355       .  S
C1205      C1256   1.422       .  S
C1208      C1338   1.425       .  S
O1209     Cu1217   2.006       .  S
O1209      C1219   1.275       .  A
O1210     Cu1217   1.967       .  S
O1210      C1220   1.271       .  A
O1211     Cu1217   1.976       .  S
O1211      C1221   1.275       .  A
O1212     Cu1217   2.000       .  S
O1212      C1222   1.280       .  A
O1213     Cu1218   2.002       .  S
O1213      C1222   1.278       .  A
O1214     Cu1218   1.970       .  S
O1214      C1221   1.269       .  A
O1215     Cu1218   1.999       .  S
O1215      C1220   1.274       .  A
O1216     Cu1218   2.044       .  S
O1216      C1219   1.284       .  A
Cu1217    Cu1218   2.379       .  S
C1220      C1320   1.414       .  S
C1221      C1252   1.406       .  S
O1223     Cu1231   2.012       .  S
O1223      C1233   1.277       .  A
O1224     Cu1231   2.001       .  S
O1224      C1234   1.273       .  A
O1225     Cu1231   2.020       .  S
O1225      C1235   1.277       .  A
O1226     Cu1231   2.062       .  S
O1226      C1236   1.285       .  A
O1227     Cu1232   2.013       .  S
O1227      C1236   1.277       .  A
O1228     Cu1232   1.961       .  S
O1228      C1235   1.271       .  A
O1229     Cu1232   1.981       .  S
O1229      C1234   1.275       .  A
O1230     Cu1232   2.013       .  S
O1230      C1233   1.279       .  A
Cu1231    Cu1232   2.377       .  S
C1234      C1259   1.419       .  S
C1235      C1322   1.421       .  S
C1237      C1238   1.534       .  S
C1237      C1243   1.520       .  S
C1237      C1241   1.533       .  S
C1238      H1245   1.078       .  S
C1238      C1239   1.378       .  D
C1239      C1240   1.569       .  S
C1240      C1244   1.591       .  S
C1240      C1242   1.573       .  S
C1240      H1246   1.110       .  S
C1241      H1247   1.086       .  S
C1241      C1242   1.374       .  D
C1243      H1248   1.070       .  S
C1243      C1244   1.345       .  D
C1249      C1250   1.194       .  T
C1251      C1252   1.188       .  T
C1253      C1254   1.204       .  T
C1255      C1256   1.196       .  T
C1257      C1258   1.198       .  T
C1259      C1260   1.196       .  T
C1261      C1262   1.197       .  T
C1263      C1264   1.198       .  T
C1265      C1266   1.195       .  T
C1267      C1268   1.196       .  T
C1269      C1270   1.203       .  T
C1271      C1272   1.197       .  T
C1273      C1274   1.200       .  T
C1275      C1276   1.201       .  T
C1277      C1278   1.204       .  T
C1279      C1280   1.201       .  T
C1281      C1282   1.202       .  T
C1283      C1284   1.199       .  T
C1285      C1286   1.194       .  T
C1287      C1288   1.196       .  T
C1289      C1290   1.196       .  T
C1291      C1292   1.197       .  T
C1293      C1294   1.199       .  T
C1295      C1296   1.203       .  T
C1297      C1298   1.198       .  T
C1299      C1300   1.198       .  T
C1301      C1302   1.194       .  T
C1303      C1304   1.200       .  T
C1305      C1306   1.197       .  T
C1307      C1308   1.208       .  T
C1309      C1310   1.198       .  T
C1311      C1312   1.198       .  T
C1313      C1314   1.198       .  T
C1315      C1316   1.195       .  T
C1317      C1318   1.202       .  T
C1319      C1320   1.194       .  T
C1321      C1322   1.200       .  T
C1323      C1324   1.190       .  T
C1325      C1326   1.189       .  T
C1327      C1328   1.210       .  T
C1329      C1330   1.200       .  T
C1331      C1332   1.195       .  T
C1333      C1334   1.192       .  T
C1335      C1336   1.197       .  T
C1337      C1338   1.201       .  T
C1339      C1340   1.200       .  T
C1341      C1342   1.200       .  T
C1343      C1344   1.194       .  T
