geometry optimzed in LAMMPS
_audit_creation_date              2020-11-30 
_audit_creation_method            'lammps2cif' 
_symmetry_space_group_name_H-M    'P1' 
_symmetry_Int_Tables_number       1 
_symmetry_cell_setting            triclinic 
loop_ 
_symmetry_equiv_pos_as_xyz 
  x,y,z 
_cell_length_a                    51.71419741 
_cell_length_b                    51.736988701870644 
_cell_length_c                    52.30599630969384 
_cell_angle_alpha                 90.02639857652572 
_cell_angle_beta                  89.99632628277628 
_cell_angle_gamma                 89.98775321677964 
loop_ 
_atom_site_label 
_atom_site_type_symbol 
_atom_site_fract_x 
_atom_site_fract_y 
_atom_site_fract_z 
_atom_site_charge 
Zn1        Zn  0.60368462  0.89724713  0.11618958     1.49700
Zn2        Zn  0.64335874  0.90963056  0.07195362     1.49400
Zn3        Zn  0.65260236  0.86176961  0.11065342     1.49100
Zn4        Zn  0.60731180  0.86059665  0.06875891     1.49500
O5          O  0.62706333  0.88219235  0.09185195    -1.84000
O6          O  0.60887524  0.93526544  0.11863611    -0.74600
O7          O  0.68151848  0.90309958  0.07088491    -0.74500
O8          O  0.65074902  0.86991459  0.14900900    -0.74000
O9          O  0.63614843  0.94532187  0.08754906    -0.74700
O10         O  0.61030606  0.88444656  0.15133026    -0.74300
O11         O  0.68848963  0.86872448  0.09555672    -0.74800
O12         O  0.61345961  0.82320485  0.07680849    -0.74200
O13         O  0.63452148  0.90688629  0.03412024    -0.75000
O14         O  0.64430914  0.82331164  0.10651006    -0.74400
O15         O  0.61961608  0.86657398  0.03287737    -0.74800
O16         O  0.56854474  0.86779698  0.07138669    -0.74800
O17         O  0.56692495  0.89101193  0.10690401    -0.74500
C18         C  0.62211702  0.95195414  0.10661058     0.77200
C19         C  0.69648612  0.88570002  0.07963915     0.77700
C20         C  0.63092606  0.87663100  0.16200604     0.76700
C21         C  0.62848664  0.81125581  0.09203804     0.77100
C22         C  0.62885649  0.88638666  0.02171763     0.78200
C23         C  0.55557337  0.87984669  0.08840967     0.77300
Zn24       Zn  0.65832410  0.85993417  0.36130589     1.49700
Zn25       Zn  0.60858230  0.89612958  0.36534802     1.49400
Zn26       Zn  0.64846406  0.90547974  0.32076689     1.49100
Zn27       Zn  0.61137660  0.85639623  0.32105923     1.49500
O28         O  0.63200132  0.87924165  0.34207329    -1.84000
O29         O  0.65525737  0.86844270  0.39955096    -0.74600
O30         O  0.61579903  0.93355348  0.36689848    -0.74500
O31         O  0.68623025  0.89726718  0.31730511    -0.74000
O32         O  0.61561106  0.88540032  0.40090106    -0.74700
O33         O  0.69444604  0.86725099  0.34667789    -0.74300
O34         O  0.64449892  0.94175512  0.33659933    -0.74800
O35         O  0.61988119  0.86275435  0.28418369    -0.74200
O36         O  0.57097349  0.89095124  0.35683453    -0.75000
O37         O  0.63643938  0.90249965  0.28404342    -0.74400
O38         O  0.57283006  0.86197359  0.32568731    -0.74800
O39         O  0.61891233  0.81950383  0.33016803    -0.74800
O40         O  0.65186297  0.82136800  0.35749047    -0.74500
C41         C  0.63593545  0.87738646  0.41200732     0.77200
C42         C  0.63074595  0.94923323  0.35553395     0.77700
C43         C  0.70179303  0.88188949  0.32838432     0.76700
C44         C  0.62846817  0.88242542  0.27220940     0.77100
C45         C  0.55980440  0.87636198  0.34066156     0.78200
C46         C  0.63531241  0.80846048  0.34468656     0.77300
Zn47       Zn  0.89404485  0.85716289  0.00726147     1.49700
Zn48       Zn  0.89247763  0.90313242  0.04848382     1.49400
Zn49       Zn  0.84605992  0.89614871  0.00801354     1.49100
Zn50       Zn  0.85446514  0.85525566  0.05126665     1.49500
O51         O  0.87200397  0.87837958  0.02861127    -1.84000
O52         O  0.93122268  0.86287238  0.01580122    -0.74600
O53         O  0.88640101  0.93986779  0.03510352    -0.74500
O54         O  0.84844222  0.88485981  0.47137818    -0.74000
O55         O  0.93070000  0.89550217  0.04356319    -0.74700
O56         O  0.88644607  0.86467232  0.47144228    -0.74300
O57         O  0.85390184  0.93405916  0.00788717    -0.74800
O58         O  0.81718201  0.86335727  0.05348444    -0.74200
O59         O  0.88404098  0.89908535  0.08682415    -0.75000
O60         O  0.80947780  0.89184533  0.02281194    -0.74400
O61         O  0.86628895  0.86015692  0.08649409    -0.74800
O62         O  0.85892909  0.81820927  0.04227178    -0.74800
O63         O  0.88732120  0.81891007  0.01069587    -0.74500
C64         C  0.94290517  0.87886860  0.03019192     0.77200
C65         C  0.87047745  0.94866747  0.01858627     0.77700
C66         C  0.86770867  0.87516267  0.45950130     0.76700
C67         C  0.80185977  0.87853300  0.04196575     0.77100
C68         C  0.87493782  0.87942860  0.09869443     0.78200
C69         C  0.87280710  0.80644921  0.02594441     0.77300
Zn70       Zn  0.85985062  0.90423985  0.30028583     1.49700
Zn71       Zn  0.85240111  0.85754499  0.26045593     1.49400
Zn72       Zn  0.90061013  0.89590394  0.25649278     1.49100
Zn73       Zn  0.89901250  0.85673169  0.30140468     1.49500
O74         O  0.87760463  0.87830036  0.27967747    -1.84000
O75         O  0.82208034  0.89649685  0.30097464    -0.74600
O76         O  0.85573607  0.86583657  0.22213003    -0.74500
O77         O  0.89447488  0.93356719  0.25639128    -0.74000
O78         O  0.81546875  0.86430081  0.27363113    -0.74700
O79         O  0.86474532  0.94057776  0.28607918    -0.74300
O80         O  0.89343826  0.88634555  0.22097157    -0.74800
O81         O  0.93734462  0.86424116  0.29749097    -0.74200
O82         O  0.86015130  0.81921602  0.26612369    -0.75000
O83         O  0.93788738  0.89006134  0.26369188    -0.74400
O84         O  0.89282789  0.81912085  0.29380878    -0.74800
O85         O  0.88956467  0.86316370  0.33776631    -0.74800
O86         O  0.86953395  0.90114361  0.33751833    -0.74500
C87         C  0.80708736  0.88025379  0.29035686     0.77200
C88         C  0.87403947  0.87674464  0.20967155     0.77700
C89         C  0.87940466  0.94875953  0.26819448     0.76700
C90         C  0.94965001  0.87757601  0.28104147     0.77100
C91         C  0.87671748  0.80709858  0.27973484     0.78200
C92         C  0.87906051  0.88194045  0.34955828     0.77300
Zn93       Zn  0.89292442  0.14568841  0.24109728     1.49700
Zn94       Zn  0.85191177  0.14546809  0.19750556     1.49400
Zn95       Zn  0.89144118  0.09908701  0.20055703     1.49100
Zn96       Zn  0.84584065  0.10562586  0.24196109     1.49500
O97         O  0.87083125  0.12364788  0.22052565    -1.84000
O98         O  0.88456033  0.18348104  0.23616894    -0.74600
O99         O  0.86491437  0.14166294  0.16237330    -0.74500
O100        O  0.92942917  0.10698323  0.20509330    -0.74000
O101        O  0.85355173  0.18292381  0.20695883    -0.74700
O102        O  0.93037596  0.14030941  0.23195985    -0.74300
O103        O  0.88359244  0.10300224  0.16239844    -0.74800
O104        O  0.85414110  0.06825050  0.24165922    -0.74200
O105        O  0.81516268  0.13455272  0.19511729    -0.75000
O106        O  0.88564489  0.06230748  0.21347215    -0.74400
O107        O  0.80864015  0.10933030  0.22888362    -0.74800
O108        O  0.85096653  0.11469293  0.27921296    -0.74800
O109        O  0.88771516  0.13720913  0.27819111    -0.74500
C110        C  0.86812241  0.19523830  0.22225547     0.77200
C111        C  0.87430777  0.12246644  0.15046443     0.77700
C112        C  0.94188797  0.12402278  0.21766621     0.76700
C113        C  0.87017700  0.05354904  0.23042644     0.77100
C114        C  0.80044773  0.12055200  0.20870950     0.78200
C115        C  0.86991398  0.12560390  0.29051340     0.77300
Zn116      Zn  0.85733864  0.14555513  0.44697946     1.49700
Zn117      Zn  0.89389685  0.09682833  0.45076042     1.49400
Zn118      Zn  0.89735856  0.14257697  0.49143365     1.49100
Zn119      Zn  0.84800076  0.10609064  0.49126116     1.49500
O120        O  0.87430940  0.12245258  0.47020948    -1.84000
O121        O  0.87069089  0.14046326  0.41179926    -0.74600
O122        O  0.93234712  0.10408842  0.45384183    -0.74500
O123        O  0.89032679  0.18096001  0.48831847    -0.74000
O124        O  0.88477988  0.09980100  0.41281926    -0.74700
O125        O  0.86086088  0.18276007  0.45743663    -0.74300
O126        O  0.93424299  0.13647013  0.48163113    -0.74800
O127        O  0.85235895  0.11906990  0.02859081    -0.74200
O128        O  0.88730440  0.06069540  0.46516504    -0.75000
O129        O  0.89256839  0.13469676  0.02837600    -0.74400
O130        O  0.85463274  0.06806734  0.49185043    -0.74800
O131        O  0.81140289  0.11138278  0.47704197    -0.74800
O132        O  0.81998838  0.13700046  0.44413708    -0.74500
C133        C  0.87787707  0.11994435  0.40041228     0.77200
C134        C  0.94533235  0.12058160  0.46664195     0.77700
C135        C  0.87507749  0.19378687  0.47401639     0.76700
C136        C  0.87281119  0.12628570  0.04025672     0.77100
C137        C  0.87079027  0.05273759  0.48153120     0.78200
C138        C  0.80421975  0.12339104  0.45692778     0.77300
Zn139      Zn  0.65117721  0.11060946  0.13745751     1.49700
Zn140      Zn  0.60508089  0.10171661  0.17714670     1.49400
Zn141      Zn  0.64246635  0.15041712  0.18202379     1.49100
Zn142      Zn  0.60285195  0.14884230  0.13697696     1.49500
O143        O  0.62511514  0.12771701  0.15833986    -1.84000
O144        O  0.64301012  0.07324335  0.13552274    -0.74600
O145        O  0.61351442  0.10411163  0.21535146    -0.74500
O146        O  0.68004605  0.14206376  0.18385334    -0.74000
O147        O  0.61126874  0.06528777  0.16267675    -0.74700
O148        O  0.68738212  0.11355225  0.15307797    -0.74300
O149        O  0.63077556  0.14355129  0.21743731    -0.74800
O150        O  0.60937579  0.18720537  0.14181825    -0.74200
O151        O  0.56690459  0.10915870  0.17252116    -0.75000
O152        O  0.63740213  0.18811579  0.17385993    -0.74400
O153        O  0.56540248  0.14167013  0.14475054    -0.74800
O154        O  0.60943796  0.14013836  0.10022122    -0.74800
O155        O  0.64796887  0.12090635  0.10022164    -0.74500
C156        C  0.62702893  0.05761184  0.14544686     0.77200
C157        C  0.62235469  0.12320292  0.22819290     0.77700
C158        C  0.69513183  0.12650982  0.17241480     0.76700
C159        C  0.62358834  0.19979757  0.15733890     0.77100
C160        C  0.55410623  0.12520014  0.15900002     0.78200
C161        C  0.62847636  0.13016261  0.08835006     0.77300
Zn162      Zn  0.65455996  0.10805225  0.38660372     1.49700
Zn163      Zn  0.60921392  0.09797592  0.42783362     1.49400
Zn164      Zn  0.64505298  0.14742461  0.43127528     1.49100
Zn165      Zn  0.60505550  0.14420320  0.38711681     1.49500
O166        O  0.62824566  0.12405049  0.40811268    -1.84000
O167        O  0.64781891  0.07018936  0.38500019    -0.74600
O168        O  0.61775530  0.10164063  0.46607086    -0.74500
O169        O  0.68265309  0.13957494  0.43364265    -0.74000
O170        O  0.61746159  0.06194407  0.41377235    -0.74700
O171        O  0.69086823  0.11275404  0.40153130    -0.74300
O172        O  0.63262174  0.14199187  0.46652341    -0.74800
O173        O  0.61001488  0.18268278  0.39158172    -0.74200
O174        O  0.57025522  0.10365578  0.42368301    -0.75000
O175        O  0.63965150  0.18460794  0.42206671    -0.74400
O176        O  0.56840892  0.13551769  0.39542763    -0.74800
O177        O  0.61123418  0.13639876  0.35037383    -0.74800
O178        O  0.65054876  0.11891199  0.34949930    -0.74500
C179        C  0.63272894  0.05435284  0.39607334     0.77200
C180        C  0.62507188  0.12183599  0.47819977     0.77700
C181        C  0.69822566  0.12525292  0.42130694     0.76700
C182        C  0.62474441  0.19574494  0.40615215     0.77100
C183        C  0.55717939  0.11943930  0.41005786     0.78200
C184        C  0.63058060  0.12770997  0.33805783     0.77300
Zn185      Zn  0.10339546  0.89284980  0.00754272     1.49700
Zn186      Zn  0.15228170  0.85512740  0.01295930     1.49400
Zn187      Zn  0.14228145  0.90200420  0.05216350     1.49100
Zn188      Zn  0.10502512  0.85305113  0.05194296     1.49500
O189        O  0.12606279  0.87546950  0.03106269    -1.84000
O190        O  0.11136293  0.88380732  0.47198720    -0.74600
O191        O  0.18786158  0.86166075  0.02949124    -0.74500
O192        O  0.13808642  0.93820566  0.03731789    -0.74000
O193        O  0.15039933  0.86580436  0.47349775    -0.74700
O194        O  0.10937546  0.93066214  0.00681606    -0.74300
O195        O  0.17989652  0.89439215  0.05579296    -0.74800
O196        O  0.11381495  0.85973008  0.08834020    -0.74200
O197        O  0.14497550  0.81632311  0.01695860    -0.75000
O198        O  0.13048236  0.89924160  0.08862881    -0.74400
O199        O  0.11265917  0.81575071  0.04483323    -0.74800
O200        O  0.06668426  0.85911726  0.04676044    -0.74800
O201        O  0.06598216  0.88725965  0.01481341    -0.74500
C202        C  0.13155780  0.87554185  0.46082982     0.77200
C203        C  0.19525003  0.87749554  0.04682605     0.77700
C204        C  0.12410564  0.94606875  0.01879054     0.76700
C205        C  0.12271605  0.87910703  0.10040048     0.77100
C206        C  0.12892279  0.80386492  0.03085682     0.78200
C207        C  0.05429014  0.87332089  0.03111197     0.77300
Zn208      Zn  0.15868838  0.89392132  0.25911768     1.49700
Zn209      Zn  0.10956296  0.85673572  0.25829816     1.49400
Zn210      Zn  0.14940771  0.85266511  0.30252458     1.49100
Zn211      Zn  0.11259000  0.90167395  0.29992908     1.49500
O212        O  0.13243345  0.87660975  0.27994359    -1.84000
O213        O  0.15525141  0.88382939  0.22196156    -0.74600
O214        O  0.11348003  0.81834287  0.26265705    -0.74500
O215        O  0.18706174  0.85939433  0.30358621    -0.74000
O216        O  0.11689178  0.86462002  0.22208731    -0.74700
O217        O  0.19508993  0.88797664  0.27289067    -0.74300
O218        O  0.14321874  0.81569933  0.29304976    -0.74800
O219        O  0.12194441  0.89783665  0.33784040    -0.74200
O220        O  0.07282899  0.86539504  0.26492777    -0.75000
O221        O  0.13914191  0.85846068  0.33842428    -0.74400
O222        O  0.07385379  0.89490231  0.29576033    -0.74800
O223        O  0.11956842  0.93821563  0.28630276    -0.74800
O224        O  0.15179103  0.93211145  0.25885264    -0.74500
C225        C  0.13593160  0.87434054  0.21010933     0.77200
C226        C  0.12814861  0.80500794  0.27700611     0.77700
C227        C  0.20257741  0.87391862  0.29149681     0.76700
C228        C  0.13123351  0.87850656  0.35004744     0.77100
C229        C  0.06131442  0.88043445  0.28035116     0.78200
C230        C  0.13553768  0.94695145  0.26974006     0.77300
Zn231      Zn  0.39208730  0.85233606  0.07320262     1.49700
Zn232      Zn  0.34651153  0.85538898  0.11488016     1.49400
Zn233      Zn  0.39437126  0.89411575  0.11594479     1.49100
Zn234      Zn  0.35276388  0.89990399  0.07278727     1.49500
O235        O  0.37109408  0.87514137  0.09415175    -1.84000
O236        O  0.38607402  0.81506514  0.08268331    -0.74600
O237        O  0.35200558  0.86426079  0.15265237    -0.74500
O238        O  0.43152945  0.89060759  0.10553440    -0.74000
O239        O  0.35364020  0.81689862  0.11063045    -0.74700
O240        O  0.43033288  0.85986556  0.07626083    -0.74300
O241        O  0.39056188  0.88307510  0.15181183    -0.74800
O242        O  0.35544531  0.93672028  0.08681845    -0.74200
O243        O  0.30917548  0.86169918  0.10267031    -0.75000
O244        O  0.38506342  0.93135585  0.11715508    -0.74400
O245        O  0.31536379  0.89059161  0.07173606    -0.74800
O246        O  0.36428126  0.89653418  0.03599664    -0.74800
O247        O  0.38339644  0.85798845  0.03641649    -0.74500
C248        C  0.37003672  0.80401455  0.09757756     0.77200
C249        C  0.37157415  0.87385309  0.16422470     0.77700
C250        C  0.44308534  0.87588219  0.08972849     0.76700
C251        C  0.36918393  0.94551515  0.10510752     0.77100
C252        C  0.30067679  0.87552908  0.08425415     0.78200
C253        C  0.37422140  0.87726722  0.02430689     0.77300
Zn254      Zn  0.35022823  0.89112781  0.36476098     1.49700
Zn255      Zn  0.39937641  0.85378597  0.36609733     1.49400
Zn256      Zn  0.36025575  0.85110348  0.32093543     1.49100
Zn257      Zn  0.39659711  0.90044535  0.32534711     1.49500
O258        O  0.37693430  0.87439984  0.34439346    -1.84000
O259        O  0.35346223  0.88077903  0.40176444    -0.74600
O260        O  0.39239226  0.81512952  0.36265709    -0.74500
O261        O  0.32257529  0.85809628  0.31866465    -0.74000
O262        O  0.39288916  0.86359025  0.40273211    -0.74700
O263        O  0.31427937  0.88572511  0.34995473    -0.74300
O264        O  0.36597848  0.81387668  0.32922967    -0.74800
O265        O  0.38856461  0.89703381  0.28704497    -0.74200
O266        O  0.43684172  0.86064658  0.35692270    -0.75000
O267        O  0.37176587  0.85744389  0.28583651    -0.74400
O268        O  0.43494435  0.89396952  0.33000835    -0.74800
O269        O  0.38900080  0.93680986  0.33916808    -0.74800
O270        O  0.35614306  0.92933074  0.36551834    -0.74500
C271        C  0.37315539  0.87283441  0.41417532     0.77200
C272        C  0.37901534  0.80248228  0.34645873     0.77700
C273        C  0.30688490  0.87247105  0.33075779     0.76700
C274        C  0.37993985  0.87756577  0.27459380     0.77100
C275        C  0.44788519  0.87741351  0.34275675     0.78200
C276        C  0.37216628  0.94478244  0.35522481     0.77300
Zn277      Zn  0.35256454  0.09453612  0.17838962     1.49700
Zn278      Zn  0.39409484  0.10225154  0.13542273     1.49400
Zn279      Zn  0.34564593  0.13998601  0.13748309     1.49100
Zn280      Zn  0.39107718  0.14309757  0.17848792     1.49500
O281        O  0.37053849  0.12015608  0.15760329    -1.84000
O282        O  0.35566479  0.05796375  0.16301740    -0.74600
O283        O  0.38827081  0.11269650  0.09975440    -0.74500
O284        O  0.30909832  0.13455637  0.15093624    -0.74000
O285        O  0.38629074  0.06489903  0.13432415    -0.74700
O286        O  0.31495316  0.10399022  0.18029809    -0.74300
O287        O  0.34913323  0.13028784  0.09994457    -0.74800
O288        O  0.38336302  0.18002183  0.17081004    -0.74200
O289        O  0.43148319  0.10763481  0.14395397    -0.75000
O290        O  0.35302509  0.17829924  0.14074649    -0.74400
O291        O  0.42933858  0.13887914  0.17289755    -0.74800
O292        O  0.38385775  0.13566207  0.21503114    -0.74800
O293        O  0.36447922  0.09724964  0.21517411    -0.74500
C294        C  0.37018766  0.04982880  0.14495231     0.77200
C295        C  0.36849251  0.12095509  0.08790519     0.77700
C296        C  0.30044035  0.11997711  0.16864600     0.76700
C297        C  0.36840136  0.19110802  0.15496423     0.77100
C298        C  0.44240303  0.12375316  0.15876878     0.78200
C299        C  0.37464498  0.11634836  0.22697029     0.77300
Zn300      Zn  0.35644653  0.14307879  0.43011284     1.49700
Zn301      Zn  0.39668054  0.13962799  0.38587398     1.49400
Zn302      Zn  0.39284946  0.09367210  0.42650600     1.49100
Zn303      Zn  0.34721696  0.10291109  0.38630782     1.49500
O304        O  0.37357416  0.11961316  0.40715255    -1.84000
O305        O  0.36197124  0.18035097  0.42127402    -0.74600
O306        O  0.43360499  0.13127576  0.39432711    -0.74500
O307        O  0.38332192  0.09682281  0.46444979    -0.74000
O308        O  0.39184624  0.17827075  0.39088830    -0.74700
O309        O  0.36747921  0.13684516  0.46552917    -0.74300
O310        O  0.43145399  0.10028861  0.42352756    -0.74800
O311        O  0.35412217  0.06486162  0.38418385    -0.74200
O312        O  0.38976762  0.13094197  0.34908408    -0.75000
O313        O  0.38646085  0.05768989  0.41124465    -0.74400
O314        O  0.35030542  0.11413127  0.34983625    -0.74800
O315        O  0.31099286  0.10807418  0.40043639    -0.74800
O316        O  0.31892312  0.13583724  0.43186686    -0.74500
C317        C  0.37718042  0.19135100  0.40557844     0.77200
C318        C  0.44465049  0.11565856  0.40967734     0.77700
C319        C  0.37505261  0.11650030  0.47685639     0.76700
C320        C  0.37066886  0.04974091  0.39417771     0.77100
C321        C  0.36997788  0.12203276  0.33749243     0.78200
C322        C  0.30349796  0.12147497  0.41949494     0.77300
Zn323      Zn  0.10254270  0.10474303  0.24144543     1.49700
Zn324      Zn  0.10425701  0.14504793  0.19718364     1.49400
Zn325      Zn  0.15050862  0.14372922  0.23759806     1.49100
Zn326      Zn  0.14264476  0.09687808  0.19761381     1.49500
O327        O  0.12531081  0.12284569  0.21849469    -1.84000
O328        O  0.06504125  0.10936758  0.23282225    -0.74600
O329        O  0.11147201  0.18234682  0.20435046    -0.74500
O330        O  0.14751778  0.13508134  0.27573156    -0.74000
O331        O  0.06601647  0.13922273  0.20241192    -0.74700
O332        O  0.10910158  0.11591433  0.27689790    -0.74300
O333        O  0.14273333  0.18231767  0.23321778    -0.74800
O334        O  0.17993852  0.10629427  0.19484873    -0.74200
O335        O  0.11203232  0.13783649  0.16053891    -0.75000
O336        O  0.18703353  0.13740478  0.22337182    -0.74400
O337        O  0.13048235  0.09904323  0.16089192    -0.74800
O338        O  0.14017024  0.06038028  0.21315084    -0.74800
O339        O  0.11031493  0.06708311  0.24276303    -0.74500
C340        C  0.05351835  0.12400659  0.21698271     0.77200
C341        C  0.12674147  0.19455105  0.21906727     0.77700
C342        C  0.12873614  0.12518555  0.28828989     0.76700
C343        C  0.19501118  0.12236901  0.20563127     0.77100
C344        C  0.12110317  0.11832257  0.14878263     0.78200
C345        C  0.12596656  0.05208700  0.23138133     0.77300
Zn346      Zn  0.10568935  0.14126199  0.48998890     1.49700
Zn347      Zn  0.10853489  0.09566536  0.44902922     1.49400
Zn348      Zn  0.14641478  0.14357041  0.44582766     1.49100
Zn349      Zn  0.15427346  0.10396683  0.49001243     1.49500
O350        O  0.12846358  0.12086280  0.46866564    -1.84000
O351        O  0.06851170  0.13399934  0.48190633    -0.74600
O352        O  0.11679738  0.09884942  0.41088612    -0.74500
O353        O  0.13972986  0.18050029  0.45337336    -0.74000
O354        O  0.07024591  0.10279990  0.45282354    -0.74700
O355        O  0.11117755  0.17944333  0.48490944    -0.74300
O356        O  0.13692157  0.13684887  0.41011400    -0.74800
O357        O  0.19074082  0.10746565  0.47578425    -0.74200
O358        O  0.11471233  0.05965512  0.46358457    -0.75000
O359        O  0.18397102  0.13690089  0.44578686    -0.74400
O360        O  0.14581203  0.06661259  0.49205925    -0.74800
O361        O  0.14984822  0.11348802  0.02641720    -0.74800
O362        O  0.11131090  0.13222490  0.02607599    -0.74500
C363        C  0.05731550  0.11839918  0.46668426     0.77200
C364        C  0.12697214  0.11767685  0.39866458     0.77700
C365        C  0.12515817  0.19204647  0.46926091     0.76700
C366        C  0.19896038  0.12158011  0.45755264     0.77100
C367        C  0.12962931  0.05162370  0.48135659     0.78200
C368        C  0.13026575  0.12247110  0.03824680     0.77300
Zn369      Zn  0.85209726  0.40382760  0.19868223     1.49700
Zn370      Zn  0.89323698  0.39524601  0.24224919     1.49400
Zn371      Zn  0.84364541  0.35816862  0.23973153     1.49100
Zn372      Zn  0.88910611  0.35470252  0.19848975     1.49500
O373        O  0.86916214  0.37786894  0.21988581    -1.84000
O374        O  0.85745135  0.44054691  0.21296942    -0.74600
O375        O  0.88690191  0.38543314  0.27833048    -0.74500
O376        O  0.80690361  0.36550372  0.22655205    -0.74000
O377        O  0.88733939  0.43301814  0.24231761    -0.74700
O378        O  0.81426389  0.39606966  0.19749922    -0.74300
O379        O  0.84854913  0.36569213  0.27789340    -0.74800
O380        O  0.88274466  0.31779413  0.20781826    -0.74200
O381        O  0.93029714  0.38905104  0.23281774    -0.75000
O382        O  0.84981054  0.31967832  0.23512223    -0.74400
O383        O  0.92740835  0.36074867  0.20117807    -0.74800
O384        O  0.87968446  0.36028025  0.16201610    -0.74800
O385        O  0.86236120  0.39968162  0.16143734    -0.74500
C386        C  0.87234808  0.44855265  0.23080146     0.77200
C387        C  0.86771648  0.37551348  0.28991514     0.77700
C388        C  0.79906763  0.38043811  0.20869453     0.76700
C389        C  0.86635940  0.30680371  0.22230948     0.77100
C390        C  0.94089399  0.37490037  0.21590316     0.78200
C391        C  0.87092330  0.37969556  0.14985602     0.77300
Zn392      Zn  0.85981858  0.40330300  0.44948026     1.49700
Zn393      Zn  0.89871293  0.39204446  0.49426309     1.49400
Zn394      Zn  0.84953877  0.35664422  0.48850076     1.49100
Zn395      Zn  0.89544025  0.35392233  0.44782666     1.49500
O396        O  0.87565225  0.37634046  0.46998239    -1.84000
O397        O  0.86558687  0.43903486  0.46481844    -0.74600
O398        O  0.89066739  0.38198131  0.02966138    -0.74500
O399        O  0.81386475  0.36420148  0.47375775    -0.74000
O400        O  0.89189081  0.42999411  0.49699239    -0.74700
O401        O  0.82174859  0.39738524  0.44820651    -0.74300
O402        O  0.84994668  0.36834330  0.02623691    -0.74800
O403        O  0.88951070  0.31673596  0.45731875    -0.74200
O404        O  0.93584602  0.38657376  0.48480720    -0.75000
O405        O  0.85691419  0.31815506  0.48497637    -0.74400
O406        O  0.93373889  0.36112064  0.45076226    -0.74800
O407        O  0.88491621  0.35973993  0.41132401    -0.74800
O408        O  0.87015960  0.40011996  0.41226226    -0.74500
C409        C  0.87825628  0.44611037  0.48457439     0.77200
C410        C  0.86938571  0.37503649  0.03975440     0.77700
C411        C  0.80608589  0.38114146  0.45772755     0.76700
C412        C  0.87368673  0.30541254  0.47224525     0.77100
C413        C  0.94685605  0.37418033  0.46680291     0.78200
C414        C  0.87681258  0.37991554  0.39986850     0.77300
Zn415      Zn  0.85387893  0.64682100  0.05680410     1.49700
Zn416      Zn  0.88865587  0.59769605  0.05322491     1.49400
Zn417      Zn  0.84367080  0.60796820  0.01202424     1.49100
Zn418      Zn  0.89386829  0.64305044  0.01219041     1.49500
O419        O  0.87016865  0.62361081  0.03340643    -1.84000
O420        O  0.86729705  0.64212874  0.09207805    -0.74600
O421        O  0.88161863  0.56218544  0.03840034    -0.74500
O422        O  0.80712927  0.61381015  0.02657140    -0.74000
O423        O  0.87976764  0.60095714  0.09119795    -0.74700
O424        O  0.81614012  0.63979635  0.05910838    -0.74300
O425        O  0.85068710  0.56984924  0.00993587    -0.74800
O426        O  0.88719026  0.63307319  0.47589479    -0.74200
O427        O  0.92728045  0.60334489  0.05004703    -0.75000
O428        O  0.84738732  0.61660133  0.47527345    -0.74400
O429        O  0.93049537  0.63591258  0.02246481    -0.74800
O430        O  0.88777135  0.68163321  0.01514051    -0.74800
O431        O  0.85904058  0.68330142  0.04650545    -0.74500
C432        C  0.87414370  0.62156227  0.10349158     0.77200
C433        C  0.86665068  0.55448967  0.02053514     0.77700
C434        C  0.80005433  0.62646710  0.04638159     0.76700
C435        C  0.86762962  0.62456566  0.46380451     0.77100
C436        C  0.94081168  0.61933236  0.03724981     0.78200
C437        C  0.87327577  0.69454875  0.03015137     0.77300
Zn438      Zn  0.85527652  0.64638109  0.30683410     1.49700
Zn439      Zn  0.89256310  0.59746792  0.30372591     1.49400
Zn440      Zn  0.84722060  0.60623847  0.26274710     1.49100
Zn441      Zn  0.89594986  0.64383875  0.26274504     1.49500
O442        O  0.87307094  0.62327538  0.28395264    -1.84000
O443        O  0.86609663  0.64018859  0.34247335    -0.74600
O444        O  0.88565857  0.56103820  0.28967238    -0.74500
O445        O  0.81064639  0.61082497  0.27625397    -0.74000
O446        O  0.88424116  0.60115718  0.34181045    -0.74700
O447        O  0.81781034  0.63852110  0.30786236    -0.74300
O448        O  0.85445098  0.56855066  0.26163618    -0.74800
O449        O  0.88911901  0.63618336  0.22543664    -0.74200
O450        O  0.93103982  0.60376602  0.29990524    -0.75000
O451        O  0.85094661  0.61641566  0.22590334    -0.74400
O452        O  0.93280453  0.63499888  0.27098393    -0.74800
O453        O  0.89098217  0.68240441  0.26852396    -0.74800
O454        O  0.86021110  0.68383971  0.29808849    -0.74500
C455        C  0.87504163  0.62051297  0.35400552     0.77200
C456        C  0.87018011  0.55309027  0.27231705     0.77700
C457        C  0.80270172  0.62393068  0.29534057     0.76700
C458        C  0.87004015  0.62593680  0.21375301     0.77100
C459        C  0.94408345  0.61914313  0.28595036     0.78200
C460        C  0.87554885  0.69515542  0.28274322     0.77300
Zn461      Zn  0.60009994  0.64867873  0.11411059     1.49700
Zn462      Zn  0.63986709  0.65000905  0.06924434     1.49400
Zn463      Zn  0.64932112  0.61131119  0.11448142     1.49100
Zn464      Zn  0.60345341  0.60110834  0.07419401     1.49500
O465        O  0.62288453  0.62749539  0.09323115    -1.84000
O466        O  0.60676250  0.68727686  0.10907578    -0.74600
O467        O  0.67750812  0.64202328  0.06696778    -0.74500
O468        O  0.64484821  0.62180804  0.15146166    -0.74000
O469        O  0.63508821  0.68758697  0.07724233    -0.74700
O470        O  0.60607258  0.64053845  0.15138554    -0.74300
O471        O  0.68578291  0.61667790  0.10019111    -0.74800
O472        O  0.61093718  0.56529407  0.08910697    -0.74200
O473        O  0.62724117  0.64363856  0.03435289    -0.75000
O474        O  0.64318623  0.57318720  0.11602253    -0.74400
O475        O  0.61214202  0.60339313  0.03588216    -0.74800
O476        O  0.56466517  0.60753851  0.07812217    -0.74800
O477        O  0.56294684  0.64051799  0.10518591    -0.74500
C478        C  0.62133066  0.69952910  0.09358278     0.77200
C479        C  0.69318446  0.62856491  0.08008283     0.77700
C480        C  0.62518823  0.63068266  0.16331579     0.76700
C481        C  0.62718646  0.55761028  0.10588355     0.77100
C482        C  0.61941535  0.62327131  0.02325870     0.78200
C483        C  0.55160255  0.62391053  0.09108129     0.77300
Zn484      Zn  0.64395116  0.64826502  0.32005743     1.49700
Zn485      Zn  0.60736571  0.59994710  0.32418023     1.49400
Zn486      Zn  0.65337107  0.60782788  0.36466062     1.49100
Zn487      Zn  0.60537706  0.64638693  0.36501541     1.49500
O488        O  0.62733545  0.62520051  0.34377163    -1.84000
O489        O  0.62857876  0.64517198  0.28524555    -0.74600
O490        O  0.61382415  0.56313825  0.33801079    -0.74500
O491        O  0.68957939  0.61371282  0.34989694    -0.74000
O492        O  0.61468088  0.60442797  0.28576316    -0.74700
O493        O  0.68062733  0.63815310  0.31611363    -0.74300
O494        O  0.64694003  0.56969134  0.36431746    -0.74800
O495        O  0.61082572  0.63685086  0.40134421    -0.74200
O496        O  0.56924948  0.60714805  0.32913815    -0.75000
O497        O  0.64846825  0.61607444  0.40259125    -0.74400
O498        O  0.56822481  0.63932707  0.35740919    -0.74800
O499        O  0.61275188  0.68467957  0.36117641    -0.74800
O500        O  0.64289441  0.68544353  0.33104668    -0.74500
C501        C  0.62056604  0.62510805  0.27364635     0.77200
C502        C  0.63027305  0.55473849  0.35427715     0.77700
C503        C  0.69648376  0.62492861  0.32919797     0.76700
C504        C  0.62868144  0.62560637  0.41381210     0.77100
C505        C  0.55679110  0.62302231  0.34313121     0.78200
C506        C  0.62863341  0.69705912  0.34717049     0.77300
Zn507      Zn  0.64128686  0.40922824  0.17908889     1.49700
Zn508      Zn  0.60316024  0.36119307  0.18108854     1.49400
Zn509      Zn  0.60038006  0.40001861  0.13547725     1.49100
Zn510      Zn  0.64877885  0.36216218  0.13971107     1.49500
O511        O  0.62360810  0.38295859  0.15879691    -1.84000
O512        O  0.63114993  0.40699048  0.21635083    -0.74600
O513        O  0.56463415  0.36762862  0.17709159    -0.74500
O514        O  0.60545826  0.43815718  0.13584557    -0.74000
O515        O  0.61353920  0.36791254  0.21719705    -0.74700
O516        O  0.63677813  0.44544871  0.16391279    -0.74300
O517        O  0.56319023  0.39208476  0.14224637    -0.74800
O518        O  0.64683818  0.37114065  0.10168103    -0.74200
O519        O  0.60985563  0.32361263  0.17366317    -0.75000
O520        O  0.60853912  0.39044391  0.09985462    -0.74400
O521        O  0.63995986  0.32394948  0.14323956    -0.74800
O522        O  0.68516079  0.36729934  0.15484728    -0.74800
O523        O  0.67889986  0.40049506  0.18113122    -0.74500
C524        C  0.62350178  0.38718253  0.22871690     0.77200
C525        C  0.55189411  0.37957426  0.15992034     0.77700
C526        C  0.62114503  0.45349746  0.14675062     0.76700
C527        C  0.62828910  0.38103001  0.08881269     0.77100
C528        C  0.62464772  0.31180194  0.15809931     0.78200
C529        C  0.69347513  0.38310364  0.17176407     0.77300
Zn530      Zn  0.64574476  0.35662075  0.43148840     1.49700
Zn531      Zn  0.65637985  0.39736485  0.38797101     1.49400
Zn532      Zn  0.60822446  0.35911566  0.38598503     1.49100
Zn533      Zn  0.60905925  0.40559601  0.42669883     1.49500
O534        O  0.62970959  0.38005543  0.40791198    -1.84000
O535        O  0.68345768  0.36248991  0.43312344    -0.74600
O536        O  0.65370120  0.38732415  0.35056832    -0.74500
O537        O  0.61337835  0.32059105  0.39021700    -0.74000
O538        O  0.69228234  0.39164409  0.40346215    -0.74700
O539        O  0.63938992  0.31939509  0.42370148    -0.74300
O540        O  0.61533794  0.36782244  0.34985821    -0.74800
O541        O  0.57091050  0.39648798  0.42363666    -0.74200
O542        O  0.64907456  0.43537071  0.38680615    -0.75000
O543        O  0.57131910  0.36619110  0.39342912    -0.74400
O544        O  0.61441352  0.44201381  0.41105797    -0.74800
O545        O  0.61822328  0.40346450  0.46480569    -0.74800
O546        O  0.63432461  0.36370026  0.46660696    -0.74500
C547        C  0.69951055  0.37701276  0.42180934     0.77200
C548        C  0.63457352  0.37776323  0.33836841     0.77700
C549        C  0.62605605  0.30785132  0.40680805     0.76700
C550        C  0.55916336  0.38067919  0.40896018     0.77100
C551        C  0.63160289  0.45031281  0.39547106     0.78200
C552        C  0.62649390  0.38410767  0.47765013     0.77300
Zn553      Zn  0.10383732  0.64231793  0.05223681     1.49700
Zn554      Zn  0.13929585  0.59252632  0.05066018     1.49400
Zn555      Zn  0.09971105  0.60264691  0.00687364     1.49100
Zn556      Zn  0.14895184  0.63940675  0.01134288     1.49500
O557        O  0.12316454  0.61947263  0.03015373    -1.84000
O558        O  0.11366498  0.63518816  0.08848298    -0.74600
O559        O  0.13475216  0.55678097  0.03534122    -0.74500
O560        O  0.06270970  0.60709398  0.01760818    -0.74000
O561        O  0.12883909  0.59498693  0.08766250    -0.74700
O562        O  0.06550421  0.63593995  0.04896925    -0.74300
O563        O  0.10719177  0.56483460  0.00392338    -0.74800
O564        O  0.14603948  0.63280909  0.47312381    -0.74200
O565        O  0.17691518  0.59918778  0.05268655    -0.75000
O566        O  0.10634520  0.61621876  0.47140933    -0.74400
O567        O  0.18490634  0.63156640  0.02599451    -0.74800
O568        O  0.14287834  0.67806477  0.01597981    -0.74800
O569        O  0.11123578  0.67984181  0.04452299    -0.74500
C570        C  0.12196677  0.61511819  0.09995390     0.77200
C571        C  0.12175690  0.54927833  0.01600525     0.77700
C572        C  0.05214210  0.62125553  0.03455864     0.76700
C573        C  0.12639876  0.62506322  0.46041103     0.77100
C574        C  0.19246052  0.61528866  0.04282568     0.78200
C575        C  0.12731001  0.69112652  0.02980099     0.77300
Zn576      Zn  0.10849361  0.59695280  0.30006950     1.49700
Zn577      Zn  0.15412745  0.60585081  0.25877925     1.49400
Zn578      Zn  0.10489854  0.64209747  0.25917229     1.49100
Zn579      Zn  0.14559797  0.64608393  0.30260959     1.49500
O580        O  0.12816203  0.62236989  0.28023185    -1.84000
O581        O  0.11595436  0.56050698  0.28660637    -0.74600
O582        O  0.14968315  0.61582013  0.22152376    -0.74500
O583        O  0.06844853  0.63459157  0.26815540    -0.74000
O584        O  0.14689605  0.56806361  0.25802880    -0.74700
O585        O  0.06958942  0.60309431  0.29661811    -0.74300
O586        O  0.11031824  0.63269168  0.22280225    -0.74800
O587        O  0.13949265  0.68279550  0.29310509    -0.74200
O588        O  0.19078750  0.61133473  0.27254476    -0.75000
O589        O  0.10986911  0.68052957  0.26256493    -0.74400
O590        O  0.18346119  0.63971386  0.30333578    -0.74800
O591        O  0.13459468  0.64069420  0.33829352    -0.74800
O592        O  0.11696708  0.60153933  0.33772470    -0.74500
C593        C  0.13129356  0.55269017  0.26905645     0.77200
C594        C  0.12933305  0.62383289  0.21018517     0.77700
C595        C  0.05682131  0.61899508  0.28289593     0.76700
C596        C  0.12460242  0.69366508  0.27705016     0.77100
C597        C  0.19891804  0.62523427  0.29104646     0.78200
C598        C  0.12555720  0.62113822  0.34992926     0.77300
Zn599      Zn  0.10382708  0.35543720  0.19403841     1.49700
Zn600      Zn  0.13994825  0.40502267  0.19363235     1.49400
Zn601      Zn  0.10094031  0.39562348  0.23843040     1.49100
Zn602      Zn  0.14958725  0.35959723  0.23430970     1.49500
O603        O  0.12380309  0.37872609  0.21496570    -1.84000
O604        O  0.11400243  0.36078827  0.15760111    -0.74600
O605        O  0.13540635  0.44135647  0.20843974    -0.74500
O606        O  0.06389253  0.39058892  0.22917188    -0.74000
O607        O  0.12963132  0.40077320  0.15657215    -0.74700
O608        O  0.06534726  0.36198524  0.19758338    -0.74300
O609        O  0.10849777  0.43313309  0.24037727    -0.74800
O610        O  0.14784957  0.37019966  0.27179481    -0.74200
O611        O  0.17769945  0.39801603  0.19171551    -0.75000
O612        O  0.10728244  0.38423098  0.27392741    -0.74400
O613        O  0.18509545  0.36592676  0.21894317    -0.74800
O614        O  0.14263940  0.32097826  0.23200058    -0.74800
O615        O  0.11114524  0.31843820  0.20343698    -0.74500
C616        C  0.12276138  0.38003998  0.14517274     0.77200
C617        C  0.12269899  0.44877908  0.22805562     0.77700
C618        C  0.05257755  0.37668505  0.21253372     0.76700
C619        C  0.12843111  0.37814800  0.28472027     0.77100
C620        C  0.19287310  0.38158995  0.20172492     0.78200
C621        C  0.12700102  0.30753035  0.21866376     0.77300
Zn622      Zn  0.14682441  0.35205113  0.44202057     1.49700
Zn623      Zn  0.10901609  0.39965528  0.44575548     1.49400
Zn624      Zn  0.10747357  0.35473934  0.48739144     1.49100
Zn625      Zn  0.15569912  0.39269016  0.48596449     1.49500
O626        O  0.12965912  0.37500812  0.46536948    -1.84000
O627        O  0.13792739  0.36005774  0.40618163    -0.74600
O628        O  0.07080488  0.39099066  0.44871063    -0.74500
O629        O  0.11271383  0.31653068  0.48240449    -0.74000
O630        O  0.11890657  0.39847821  0.40792229    -0.74700
O631        O  0.13933615  0.31516771  0.44927104    -0.74300
O632        O  0.07030122  0.36271241  0.48074872    -0.74800
O633        O  0.15388770  0.38272408  0.02322410    -0.74200
O634        O  0.11352348  0.43548652  0.46123929    -0.75000
O635        O  0.11593414  0.36253904  0.02398281    -0.74400
O636        O  0.14698522  0.43040048  0.48738010    -0.74800
O637        O  0.19213631  0.38748077  0.47149839    -0.74800
O638        O  0.18482576  0.35683905  0.44285281    -0.74500
C639        C  0.12921148  0.38009103  0.39515224     0.77200
C640        C  0.05858229  0.37681634  0.46455823     0.77700
C641        C  0.12600037  0.30378762  0.46625640     0.76700
C642        C  0.13500493  0.37282827  0.03547295     0.77100
C643        C  0.12919786  0.44446123  0.47788756     0.78200
C644        C  0.20029621  0.37201992  0.45423655     0.77300
Zn645      Zn  0.39175028  0.35308912  0.13328029     1.49700
Zn646      Zn  0.35138734  0.35133930  0.17719171     1.49400
Zn647      Zn  0.38910130  0.39935735  0.17388847     1.49100
Zn648      Zn  0.34334307  0.39179690  0.13340532     1.49500
O649        O  0.36916846  0.37416505  0.15421526    -1.84000
O650        O  0.38575380  0.31465763  0.13854316    -0.74600
O651        O  0.36281411  0.35682245  0.21269103    -0.74500
O652        O  0.42735056  0.39195234  0.17028729    -0.74000
O653        O  0.35527491  0.31421078  0.16836183    -0.74700
O654        O  0.42901668  0.36103779  0.14080919    -0.74300
O655        O  0.37999242  0.39613511  0.21170025    -0.74800
O656        O  0.35092773  0.42962263  0.13293686    -0.74200
O657        O  0.31418572  0.35927783  0.17854608    -0.75000
O658        O  0.38338266  0.43592337  0.16001467    -0.74400
O659        O  0.30677920  0.38745955  0.14759216    -0.74800
O660        O  0.34721048  0.38185168  0.09626976    -0.74800
O661        O  0.38496299  0.36138623  0.09662246    -0.74500
C662        C  0.37002716  0.30243936  0.15287385     0.77200
C663        C  0.37134197  0.37671867  0.22414875     0.77700
C664        C  0.44022471  0.37672279  0.15595821     0.76700
C665        C  0.36743754  0.44444462  0.14340251     0.77100
C666        C  0.29893080  0.37415993  0.16662380     0.78200
C667        C  0.36642737  0.37199826  0.08447838     0.77300
Zn668      Zn  0.39760177  0.35285862  0.42681717     1.49700
Zn669      Zn  0.39894010  0.39128694  0.38087557     1.49400
Zn670      Zn  0.35110696  0.35301214  0.38619626     1.49100
Zn671      Zn  0.35826451  0.40036108  0.42449912     1.49500
O672        O  0.37629543  0.37413904  0.40464676    -1.84000
O673        O  0.43575665  0.36049452  0.42278393    -0.74600
O674        O  0.39038369  0.38173059  0.34537393    -0.74500
O675        O  0.35930929  0.31518046  0.39145333    -0.74000
O676        O  0.43612570  0.38472552  0.38785895    -0.74700
O677        O  0.39177867  0.31500206  0.41940432    -0.74300
O678        O  0.35287922  0.36100416  0.34799395    -0.74800
O679        O  0.32065909  0.39258801  0.42565726    -0.74200
O680        O  0.39396328  0.42929066  0.38130492    -0.75000
O681        O  0.31482592  0.35867764  0.40044805    -0.74400
O682        O  0.36292800  0.43634535  0.40977282    -0.74800
O683        O  0.36806497  0.39816844  0.46162434    -0.74800
O684        O  0.38832747  0.36020884  0.46318712    -0.74500
C685        C  0.44796673  0.37295818  0.40563044     0.77200
C686        C  0.37066643  0.37173733  0.33478353     0.77700
C687        C  0.37569939  0.30308917  0.40518386     0.76700
C688        C  0.30606656  0.37523031  0.41633870     0.77100
C689        C  0.37845617  0.44445034  0.39264066     0.78200
C690        C  0.37781406  0.37947727  0.47422967     0.77300
Zn691      Zn  0.34122483  0.60250377  0.11557496     1.49700
Zn692      Zn  0.39006311  0.64063162  0.11584594     1.49400
Zn693      Zn  0.38731063  0.59488300  0.07522164     1.49100
Zn694      Zn  0.34922611  0.64365321  0.07219231     1.49500
O695        O  0.36710603  0.62018479  0.09473383    -1.84000
O696        O  0.34538034  0.61248763  0.15274845    -0.74600
O697        O  0.42728276  0.63387970  0.10659793    -0.74500
O698        O  0.38200885  0.55842901  0.08982713    -0.74000
O699        O  0.38415519  0.63094238  0.15240797    -0.74700
O700        O  0.34870174  0.56457588  0.11601432    -0.74300
O701        O  0.42577468  0.60277203  0.07756944    -0.74800
O702        O  0.35882179  0.63659579  0.03629896    -0.74200
O703        O  0.38368341  0.67923226  0.11214272    -0.75000
O704        O  0.37742641  0.59774998  0.03754766    -0.74400
O705        O  0.35490966  0.68102876  0.08077662    -0.74800
O706        O  0.31153883  0.63725142  0.07228934    -0.74800
O707        O  0.30443013  0.60735640  0.10173631    -0.74500
C708        C  0.36518117  0.62108849  0.16454774     0.77200
C709        C  0.43870602  0.61866184  0.09109401     0.77700
C710        C  0.36557774  0.54985072  0.10597086     0.76700
C711        C  0.36759686  0.61663605  0.02509827     0.77100
C712        C  0.36906240  0.69220180  0.09730765     0.78200
C713        C  0.29627223  0.62221119  0.08399026     0.77300
Zn714      Zn  0.34865656  0.64047940  0.36427573     1.49700
Zn715      Zn  0.39676524  0.60238213  0.36815699     1.49400
Zn716      Zn  0.35580954  0.59393536  0.32431032     1.49100
Zn717      Zn  0.39416855  0.64155327  0.32303152     1.49500
O718        O  0.37361921  0.61972555  0.34498994    -1.84000
O719        O  0.35013933  0.63055850  0.40215505    -0.74600
O720        O  0.39138134  0.56440252  0.36717769    -0.74500
O721        O  0.31830410  0.60258103  0.32263617    -0.74000
O722        O  0.38864317  0.61159020  0.40392354    -0.74700
O723        O  0.31249539  0.63581640  0.34872077    -0.74300
O724        O  0.36008035  0.55766849  0.33887382    -0.74800
O725        O  0.38499623  0.63507473  0.28664686    -0.74200
O726        O  0.43409292  0.60942660  0.36101904    -0.75000
O727        O  0.36640947  0.59641597  0.28713828    -0.74400
O728        O  0.43239080  0.63480591  0.32692790    -0.74800
O729        O  0.38791104  0.67887923  0.33109900    -0.74800
O730        O  0.35796630  0.67868903  0.36159530    -0.74500
C731        C  0.36858924  0.62034260  0.41494549     0.77200
C732        C  0.37563953  0.54939116  0.35592594     0.77700
C733        C  0.30378436  0.62000498  0.33203383     0.76700
C734        C  0.37549363  0.61575349  0.27495127     0.77100
C735        C  0.44527657  0.62209421  0.34338052     0.78200
C736        C  0.37360818  0.69080869  0.34702740     0.77300
C737        C  0.38292247  0.60136910  0.48382008    -0.26200
C738        C  0.36663200  0.61808631  0.49736733    -0.14300
C739        C  0.34909473  0.63397140  0.48360804     0.36300
C740        C  0.34987060  0.63424100  0.45674412    -0.25700
C741        C  0.36713813  0.61844104  0.44323578    -0.14900
C742        C  0.38315747  0.60117341  0.45705532     0.37400
N743        N  0.39957649  0.58311596  0.44407425    -0.89100
H744        H  0.39591145  0.58856214  0.49401114     0.18500
H745        H  0.33704632  0.64703267  0.44634506     0.18500
N746        N  0.33036497  0.64957730  0.49685815    -0.88200
H747        H  0.39439813  0.56447412  0.44984983     0.35900
H748        H  0.41863571  0.58646081  0.44986659     0.41000
H749        H  0.31500938  0.62481494  0.00516521     0.40600
H750        H  0.31922171  0.66025472  0.48394818     0.35500
C751        C  0.38729496  0.63257725  0.20512094    -0.26200
C752        C  0.36695069  0.61939427  0.19291841    -0.14300
C753        C  0.35012726  0.60404768  0.20807794     0.36300
C754        C  0.35380367  0.60274587  0.23456016    -0.25700
C755        C  0.37382200  0.61641040  0.24667375    -0.14900
C756        C  0.39090365  0.63133212  0.23151535     0.37400
N757        N  0.41252647  0.64498439  0.24208558    -0.89100
H758        H  0.40072002  0.64416180  0.19409480     0.18500
H759        H  0.34049329  0.59124561  0.24581931     0.18500
N760        N  0.32936207  0.58926133  0.19737658    -0.88200
H761        H  0.42371082  0.63210335  0.25280856     0.35900
H762        H  0.40581997  0.65989050  0.25381012     0.41000
H763        H  0.33691303  0.57631660  0.18395981     0.40600
H764        H  0.31633286  0.60181645  0.18849454     0.35500
C765        C  0.35397668  0.48377209  0.38034156    -0.26200
C766        C  0.37790624  0.47171305  0.38451073    -0.14300
C767        C  0.40095238  0.48497275  0.37846684     0.36300
C768        C  0.39954316  0.51002028  0.36830969    -0.25700
C769        C  0.37562490  0.52199775  0.36377600    -0.14900
C770        C  0.35258713  0.50863778  0.36988634     0.37400
N771        N  0.32760770  0.52007184  0.36642991    -0.89100
H772        H  0.33621017  0.47356045  0.38467730     0.18500
H773        H  0.41724570  0.52038102  0.36406071     0.18500
N774        N  0.42567535  0.47306123  0.38294010    -0.88200
H775        H  0.32506265  0.52410054  0.34701989     0.35900
H776        H  0.32693920  0.53740042  0.37669986     0.41000
H777        H  0.42760159  0.47038570  0.40266135     0.40600
H778        H  0.44068439  0.48536395  0.37734822     0.35500
C779        C  0.35498349  0.35818290  0.26493154    -0.26200
C780        C  0.37049589  0.37675116  0.25251178    -0.14300
C781        C  0.38470663  0.39449236  0.26739420     0.36300
C782        C  0.38364562  0.39273047  0.29412822    -0.25700
C783        C  0.36886758  0.37359509  0.30653254    -0.14900
C784        C  0.35383902  0.35650616  0.29169534     0.37400
N785        N  0.33806439  0.33706848  0.30363552    -0.89100
H786        H  0.34354521  0.34480187  0.25370754     0.18500
H787        H  0.39484232  0.40629697  0.30537612     0.18500
N788        N  0.40052619  0.41392895  0.25549928    -0.88200
H789        H  0.32971335  0.32499545  0.28988907     0.35900
H790        H  0.32269988  0.34654437  0.31263588     0.41000
H791        H  0.41576649  0.40446299  0.24627575     0.40600
H792        H  0.40894516  0.42595513  0.26924420     0.35500
C793        C  0.39113431  0.36498064  0.04429239    -0.26200
C794        C  0.36831583  0.37380295  0.05614159    -0.14300
C795        C  0.34899976  0.38565000  0.04090242     0.36300
C796        C  0.35311009  0.38841387  0.01447540    -0.25700
C797        C  0.37573660  0.37917929  0.00283504    -0.14900
C798        C  0.39509054  0.36763956  0.01793312     0.37400
N799        N  0.41885153  0.35895072  0.00648976    -0.89100
H800        H  0.40629470  0.35622999  0.05565384     0.18500
H801        H  0.33814301  0.39702836  0.00273707     0.18500
N802        N  0.32527312  0.39473576  0.05207896    -0.88200
H803        H  0.43105318  0.35079610  0.02023542     0.35900
H804        H  0.42846653  0.37513886  0.49877382     0.41000
H805        H  0.31495609  0.37852442  0.05826760     0.40600
H806        H  0.31370917  0.40379374  0.03834529     0.35500
C807        C  0.34414949  0.48371139  0.12910590    -0.26200
C808        C  0.36782501  0.47191286  0.13517903    -0.14300
C809        C  0.39104564  0.48564335  0.13047928     0.36300
C810        C  0.39000937  0.51061451  0.11997999    -0.25700
C811        C  0.36624257  0.52244890  0.11427116    -0.14900
C812        C  0.34308464  0.50874323  0.11878968     0.37400
N813        N  0.31853787  0.52019510  0.11256146    -0.89100
H814        H  0.32629722  0.47321577  0.13226716     0.18500
H815        H  0.40788419  0.52105894  0.11678346     0.18500
N816        N  0.41591440  0.47452453  0.13543228    -0.88200
H817        H  0.30337786  0.50764739  0.11712544     0.35900
H818        H  0.31798391  0.52278437  0.09274445     0.41000
H819        H  0.41743219  0.45719598  0.12524782     0.40600
H820        H  0.41735791  0.47057180  0.15496835     0.35500
C821        C  0.27228661  0.38732568  0.44814563    -0.26200
C822        C  0.27882360  0.37401289  0.42552222    -0.14300
C823        C  0.25962615  0.35923742  0.41310988     0.36300
C824        C  0.23453771  0.35838185  0.42341933    -0.25700
C825        C  0.22786187  0.37207894  0.44581237    -0.14900
C826        C  0.24722696  0.38638997  0.45851600     0.37400
N827        N  0.24157352  0.39987041  0.48190318    -0.89100
H828        H  0.28696233  0.39829641  0.45817730     0.18500
H829        H  0.21992927  0.34732286  0.41339061     0.18500
N830        N  0.26541780  0.34542086  0.38994148    -0.88200
H831        H  0.25705538  0.41464479  0.98639214     0.35900
H832        H  0.23766159  0.39004911  0.99443986     0.41000
H833        H  0.26940926  0.35911876  0.37578992     0.40600
H834        H  0.24929909  0.33501841  0.38363227     0.35500
C835        C  0.14795639  0.36541387  0.32632950    -0.26200
C836        C  0.13014006  0.38055161  0.31285841    -0.14300
C837        C  0.11390616  0.39769253  0.32655665     0.36300
C838        C  0.11439328  0.39787226  0.35334993    -0.25700
C839        C  0.13103326  0.38146733  0.36689514    -0.14900
C840        C  0.14868285  0.36581769  0.35310020     0.37400
N841        N  0.16754210  0.35036888  0.36612152    -0.89100
H842        H  0.16106441  0.35274069  0.31610808     0.18500
H843        H  0.10124091  0.41051855  0.36354171     0.18500
N844        N  0.09705758  0.41519203  0.31338054    -0.88200
H845        H  0.18589796  0.35604785  0.35989703     0.35900
H846        H  0.16477501  0.33107930  0.36081522     0.41000
H847        H  0.10189382  0.43403090  0.31882853     0.40600
H848        H  0.07810583  0.41157088  0.31934665     0.35500
C849        C  0.14078438  0.39643633  0.10395014    -0.26200
C850        C  0.12599831  0.37782647  0.11703152    -0.14300
C851        C  0.11574137  0.35672794  0.10310844     0.36300
C852        C  0.11990485  0.35503809  0.07674507    -0.25700
C853        C  0.13419811  0.37388247  0.06366972    -0.14900
C854        C  0.14493160  0.39465731  0.07749139     0.37400
N855        N  0.15923817  0.41450254  0.06467178    -0.89100
H856        H  0.14919134  0.41255967  0.11423345     0.18500
H857        H  0.11152124  0.33894762  0.06636587     0.18500
N858        N  0.10075935  0.33704775  0.11543428    -0.88200
H859        H  0.17765320  0.41542050  0.07287150     0.35900
H860        H  0.14997744  0.43215891  0.06797771     0.41000
H861        H  0.10982467  0.31925783  0.11228706     0.40600
H862        H  0.08253866  0.33645297  0.10678929     0.35500
C863        C  0.23913747  0.37119969  0.20907644    -0.26200
C864        C  0.21993220  0.38027843  0.19251431    -0.14300
C865        C  0.22672979  0.38743078  0.16722900     0.36300
C866        C  0.25263230  0.38553244  0.15929255    -0.25700
C867        C  0.27185570  0.37631327  0.17584280    -0.14900
C868        C  0.26501981  0.36944877  0.20124697     0.37400
N869        N  0.28436469  0.36118176  0.21925947    -0.89100
H870        H  0.23400351  0.36589115  0.22846292     0.18500
H871        H  0.25772944  0.39080672  0.13989182     0.18500
N872        N  0.20729266  0.39600942  0.14946998    -0.88200
H873        H  0.27598839  0.35632382  0.23680712     0.35900
H874        H  0.29652344  0.37693552  0.22278293     0.41000
H875        H  0.19490046  0.38043040  0.14598424     0.40600
H876        H  0.21558290  0.40086069  0.13188080     0.35500
C877        C  0.23517419  0.64359027  0.31670462    -0.26200
C878        C  0.22641607  0.62431697  0.29972356    -0.14300
C879        C  0.24346446  0.60383079  0.29356630     0.36300
C880        C  0.26805986  0.60289142  0.30471748    -0.25700
C881        C  0.27670872  0.62192417  0.32206528    -0.14900
C882        C  0.25980880  0.64271048  0.32780215     0.37400
N883        N  0.26689233  0.66337812  0.34462504    -0.89100
H884        H  0.22265184  0.65961566  0.32169857     0.18500
H885        H  0.28051102  0.58684715  0.29963491     0.18500
N886        N  0.23640210  0.58332460  0.27653429    -0.88200
H887        H  0.28327630  0.67261196  0.33732069     0.35900
H888        H  0.27098966  0.65573245  0.36266658     0.41000
H889        H  0.23223167  0.59117783  0.25859509     0.40600
H890        H  0.22003267  0.57398936  0.28374453     0.35500
C891        C  0.13574984  0.52111022  0.23355347    -0.26200
C892        C  0.13004725  0.52569390  0.25950026    -0.14300
C893        C  0.12225368  0.50486120  0.27501795     0.36300
C894        C  0.11976833  0.48013211  0.26411370    -0.25700
C895        C  0.12509729  0.47559840  0.23803392    -0.14900
C896        C  0.13321714  0.49641920  0.22261846     0.37400
N897        N  0.13837459  0.49264026  0.19586675    -0.89100
H898        H  0.14150301  0.53709924  0.22144874     0.18500
H899        H  0.11400248  0.46418044  0.27625582     0.18500
N900        N  0.11726522  0.50874063  0.30178861    -0.88200
H901        H  0.14447726  0.50988355  0.18737037     0.35900
H902        H  0.12090873  0.48766615  0.18707884     0.41000
H903        H  0.13469393  0.51417964  0.31037907     0.40600
H904        H  0.11163221  0.49142154  0.31045400     0.35500
C905        C  0.11010670  0.60737681  0.41959818    -0.26200
C906        C  0.12655524  0.62491684  0.43216121    -0.14300
C907        C  0.14242046  0.64141874  0.41759213     0.36300
C908        C  0.14189882  0.63947697  0.39082248    -0.25700
C909        C  0.12564262  0.62163723  0.37824754    -0.14900
C910        C  0.10946151  0.60547874  0.39292201     0.37400
N911        N  0.09201081  0.58758125  0.38088141    -0.89100
H912        H  0.09785264  0.59461838  0.43068197     0.18500
H913        H  0.15428335  0.65209666  0.37972674     0.18500
N914        N  0.15863804  0.66028762  0.42987094    -0.88200
H915        H  0.07976318  0.57910156  0.39439304     0.35900
H916        H  0.10314436  0.57251498  0.37337951     0.41000
H917        H  0.14653693  0.67360205  0.43900136     0.40600
H918        H  0.16924237  0.67070857  0.41633030     0.35500
C919        C  0.14512774  0.60647294  0.16853619    -0.26200
C920        C  0.12731112  0.62200999  0.18187812    -0.14300
C921        C  0.10747177  0.63462972  0.16779957     0.36300
C922        C  0.10609940  0.63149674  0.14137605    -0.25700
C923        C  0.12370697  0.61584842  0.12815457    -0.14900
C924        C  0.14354404  0.60322252  0.14200900     0.37400
N925        N  0.16286628  0.58772413  0.12972278    -0.89100
H926        H  0.16040950  0.59655613  0.17876835     0.18500
H927        H  0.09091520  0.64147990  0.13104010     0.18500
N928        N  0.08853135  0.65109332  0.17942795    -0.88200
H929        H  0.17211931  0.59889490  0.11580442     0.35900
H930        H  0.15388199  0.57195352  0.12096257     0.41000
H931        H  0.09794529  0.66576530  0.18954297     0.40600
H932        H  0.07696911  0.64017191  0.19173465     0.35500
C933        C  0.25675735  0.59689316  0.07383281    -0.26200
C934        C  0.26904342  0.62102849  0.07519048    -0.14300
C935        C  0.25598482  0.64307365  0.06552645     0.36300
C936        C  0.23147893  0.64042101  0.05455246    -0.25700
C937        C  0.21930349  0.61626945  0.05282605    -0.14900
C938        C  0.23219780  0.59423048  0.06282983     0.37400
N939        N  0.22136436  0.56877124  0.06140837    -0.89100
H940        H  0.26663229  0.57976827  0.08071034     0.18500
H941        H  0.22166747  0.65759371  0.04770736     0.18500
N942        N  0.26670285  0.66856887  0.06715759    -0.88200
H943        H  0.21637180  0.56488125  0.04242081     0.35900
H944        H  0.20484276  0.56790593  0.07285516     0.41000
H945        H  0.28303310  0.66974612  0.05548263     0.40600
H946        H  0.27196566  0.67220084  0.08612326     0.35500
C947        C  0.10355003  0.51168888  0.99225415    -0.26200
C948        C  0.12400300  0.52229550  0.00652927    -0.14300
C949        C  0.14672520  0.50758428  0.01007046     0.36300
C950        C  0.14742416  0.48285421  0.50042477    -0.25700
C951        C  0.12649670  0.47148922  0.48740249    -0.14900
C952        C  0.10312503  0.48556235  0.48518081     0.37400
N953        N  0.08068660  0.47400941  0.47363508    -0.89100
H954        H  0.08608865  0.52291252  0.98944143     0.18500
H955        H  0.16532111  0.47217971  0.50252851     0.18500
N956        N  0.16841151  0.51816476  0.02375149    -0.88200
H957        H  0.06531915  0.48713650  0.47311277     0.35900
H958        H  0.07476091  0.45882359  0.48545500     0.41000
H959        H  0.17562878  0.53361275  0.01302199     0.40600
H960        H  0.18338065  0.50464155  0.02506485     0.35500
C961        C  0.51827316  0.37497424  0.38556039    -0.26200
C962        C  0.53070394  0.37907704  0.40902611    -0.14300
C963        C  0.51591304  0.38044479  0.43166579     0.36300
C964        C  0.48884303  0.37788041  0.43016919    -0.25700
C965        C  0.47643925  0.37435343  0.40650742    -0.14900
C966        C  0.49149365  0.37287672  0.38398691     0.37400
N967        N  0.48030142  0.36858354  0.35928104    -0.89100
H968        H  0.52950040  0.37369903  0.36809608     0.18500
H969        H  0.47734541  0.37901159  0.44745922     0.18500
N970        N  0.52836570  0.38398501  0.45598870    -0.88200
H971        H  0.46879931  0.38442911  0.35441937     0.35900
H972        H  0.46884860  0.35195197  0.36003396     0.41000
H973        H  0.53978041  0.36766977  0.45943009     0.40600
H974        H  0.51465905  0.38471273  0.47067168     0.35500
C975        C  0.51093624  0.37300729  0.13651104    -0.26200
C976        C  0.52338614  0.37844195  0.15971132    -0.14300
C977        C  0.50850267  0.38366250  0.18170638     0.36300
C978        C  0.48134833  0.38331704  0.17996200    -0.25700
C979        C  0.46885194  0.37736748  0.15683132    -0.14900
C980        C  0.48386250  0.37232988  0.13479803     0.37400
N981        N  0.47162463  0.36708280  0.11065117    -0.89100
H982        H  0.52246209  0.36925498  0.11959911     0.18500
H983        H  0.46987699  0.38738161  0.19682900     0.18500
N984        N  0.52092728  0.39028517  0.20540641    -0.88200
H985        H  0.48544428  0.36352325  0.09648532     0.35900
H986        H  0.46172139  0.38379695  0.10513172     0.41000
H987        H  0.53034037  0.37375116  0.21211497     0.40600
H988        H  0.50717047  0.39510265  0.21926412     0.35500
C989        C  0.61736752  0.36359053  0.26960020    -0.26200
C990        C  0.62694989  0.38558023  0.25692073    -0.14300
C991        C  0.64067089  0.40440009  0.27126209     0.36300
C992        C  0.64385114  0.40092265  0.29776688    -0.25700
C993        C  0.63373438  0.37916610  0.31022573    -0.14900
C994        C  0.62065497  0.36023485  0.29588582     0.37400
N995        N  0.61083830  0.33735934  0.30791168    -0.89100
H996        H  0.60718420  0.34866547  0.25911969     0.18500
H997        H  0.65371743  0.41560833  0.30886605     0.18500
N998        N  0.65114085  0.42703852  0.25915322    -0.88200
H999        H  0.61937468  0.32132656  0.29913132     0.35900
H1000       H  0.59091255  0.33649601  0.30462400     0.41000
H1001       H  0.66633587  0.42103728  0.24740027     0.40600
H1002       H  0.65931834  0.43945371  0.27270110     0.35500
C1003       C  0.64605318  0.36969132  0.01895918    -0.26200
C1004       C  0.62812577  0.38577680  0.00634193    -0.14300
C1005       C  0.61081641  0.40069855  0.02103254     0.36300
C1006       C  0.61155926  0.39880766  0.04779867    -0.25700
C1007       C  0.62916405  0.38235674  0.06042983    -0.14900
C1008       C  0.64662838  0.36760344  0.04571749     0.37400
N1009       N  0.66449537  0.35014854  0.05778810    -0.89100
H1010       H  0.65952061  0.35823361  0.00784121     0.18500
H1011       H  0.59814071  0.41037049  0.05885518     0.18500
N1012       N  0.59194648  0.41700890  0.00889013    -0.88200
H1013       H  0.67639672  0.34128656  0.04420429     0.35900
H1014       H  0.65366180  0.33536676  0.06621713     0.41000
H1015       H  0.60837074  0.43455890  0.50093433     0.40600
H1016       H  0.57938480  0.42498427  0.02242867     0.35500
C1017       C  0.51492329  0.62020377  0.32003975    -0.26200
C1018       C  0.52833108  0.62231190  0.34323704    -0.14300
C1019       C  0.51443125  0.62380307  0.36640500     0.36300
C1020       C  0.48731587  0.62367527  0.36581731    -0.25700
C1021       C  0.47381614  0.62231488  0.34258074    -0.14900
C1022       C  0.48787465  0.62048089  0.31942639     0.37400
N1023       N  0.47530640  0.61817733  0.29512491    -0.89100
H1024       H  0.52555253  0.61881894  0.30222860     0.18500
H1025       H  0.47663136  0.62484148  0.38360975     0.18500
N1026       N  0.52790658  0.62501897  0.39043650    -0.88200
H1027       H  0.46454445  0.63491782  0.29174095     0.35900
H1028       H  0.46280233  0.60231155  0.29571204     0.41000
H1029       H  0.53799126  0.60764709  0.39268722     0.40600
H1030       H  0.51482217  0.62615391  0.40563826     0.35500
C1031       C  0.65341971  0.51515646  0.36855235    -0.26200
C1032       C  0.62982748  0.52740612  0.36314664    -0.14300
C1033       C  0.60651516  0.51457496  0.36940062     0.36300
C1034       C  0.60741052  0.48979105  0.38080549    -0.25700
C1035       C  0.63111535  0.47749145  0.38595364    -0.14900
C1036       C  0.65427210  0.49045213  0.37959373     0.37400
N1037       N  0.67884923  0.47876364  0.38472195    -0.89100
H1038       H  0.67145487  0.52492192  0.36428649     0.18500
H1039       H  0.58953479  0.47986400  0.38529354     0.18500
N1040       N  0.58207545  0.52693569  0.36470712    -0.88200
H1041       H  0.68923688  0.49105305  0.39682127     0.35900
H1042       H  0.68894135  0.47731155  0.36745687     0.41000
H1043       H  0.58105101  0.54326098  0.37645798     0.40600
H1044       H  0.56682818  0.51486642  0.37015331     0.35500
C1045       C  0.51004486  0.60237004  0.07822176    -0.26200
C1046       C  0.52264567  0.62334790  0.09004880    -0.14300
C1047       C  0.50726108  0.64324252  0.10085545     0.36300
C1048       C  0.48016959  0.64130020  0.10011470    -0.25700
C1049       C  0.46755724  0.61991936  0.08917337    -0.14900
C1050       C  0.48295917  0.60040208  0.07765674     0.37400
N1051       N  0.47192589  0.57807615  0.06567665    -0.89100
H1052       H  0.52131844  0.58698975  0.06963807     0.18500
H1053       H  0.46881093  0.65664548  0.10863435     0.18500
N1054       N  0.51896545  0.66549882  0.11258720    -0.88200
H1055       H  0.46036473  0.58406612  0.05039874     0.35900
H1056       H  0.46061348  0.56821891  0.07905957     0.41000
H1057       H  0.52669180  0.65952179  0.13008294     0.40600
H1058       H  0.50501846  0.67942891  0.11703441     0.35500
C1059       C  0.61173823  0.64316361  0.45451170    -0.26200
C1060       C  0.62545246  0.62352884  0.44188194    -0.14300
C1061       C  0.63369441  0.60163907  0.45590312     0.36300
C1062       C  0.62890414  0.60049284  0.48244903    -0.25700
C1063       C  0.61606279  0.62073623  0.49504923    -0.14900
C1064       C  0.60712088  0.64200496  0.48080982     0.37400
N1065       N  0.59338928  0.66261463  0.49310618    -0.89100
H1066       H  0.60479867  0.65980526  0.44395778     0.18500
H1067       H  0.63602810  0.58425701  0.49347470     0.18500
N1068       N  0.64666526  0.58066882  0.44321177    -0.88200
H1069       H  0.57525845  0.66430260  0.48441747     0.35900
H1070       H  0.61603542  0.68362802  0.99093769     0.41000
H1071       H  0.63352214  0.57233454  0.43044632     0.40600
H1072       H  0.65163275  0.56623877  0.45631323     0.35500
C1073       C  0.62968075  0.60516592  0.23144776    -0.26200
C1074       C  0.61946342  0.62589758  0.24540242    -0.14300
C1075       C  0.61073844  0.64813692  0.23227800     0.36300
C1076       C  0.61286873  0.64927397  0.20548045    -0.25700
C1077       C  0.62402119  0.62890108  0.19157464    -0.14900
C1078       C  0.63231619  0.60650252  0.20485321     0.37400
N1079       N  0.64299866  0.58455862  0.19188704    -0.89100
H1080       H  0.63655278  0.58811558  0.24138494     0.18500
H1081       H  0.60609340  0.66628524  0.19541509     0.18500
N1082       N  0.59972260  0.66943095  0.24621037    -0.88200
H1083       H  0.66024804  0.59002986  0.18302311     0.35900
H1084       H  0.62986657  0.57834821  0.17798181     0.41000
H1085       H  0.58269731  0.66285562  0.25480568     0.40600
H1086       H  0.59440033  0.68431602  0.23375596     0.35500
C1087       C  0.60288321  0.51707586  0.11481555    -0.26200
C1088       C  0.62646421  0.53047204  0.11527854    -0.14300
C1089       C  0.64817969  0.51870122  0.12699203     0.36300
C1090       C  0.64562733  0.49414084  0.13830584    -0.25700
C1091       C  0.62203338  0.48075159  0.13777895    -0.14900
C1092       C  0.60034182  0.49253326  0.12606736     0.37400
N1093       N  0.57567491  0.47969643  0.12589010    -0.89100
H1094       H  0.58606720  0.52613626  0.10631031     0.18500
H1095       H  0.66242651  0.48501505  0.14677834     0.44100
N1096       N  0.67287450  0.53147439  0.12698087    -0.88200
H1097       H  0.56183695  0.49082275  0.11633572     0.35900
H1098       H  0.56947682  0.47815884  0.14485715     0.41000
H1099       H  0.67896165  0.53291917  0.10797012     0.40600
H1100       H  0.68673147  0.52031956  0.13647691     0.35500
C1101       C  0.98598564  0.63309062  0.26758930    -0.26200
C1102       C  0.97294293  0.61873704  0.28635756    -0.14300
C1103       C  0.98791189  0.60478516  0.30447232     0.36300
C1104       C  0.01502029  0.60524991  0.30295567    -0.25700
C1105       C  0.02797449  0.61946160  0.28391575    -0.14900
C1106       C  0.01287129  0.63377143  0.26616322     0.37400
N1107       N  0.02390938  0.64911209  0.24613158    -0.89100
H1108       H  0.97521356  0.64401723  0.25348603     0.18500
H1109       H  0.02601248  0.59439994  0.31694971     0.18500
N1110       N  0.97642804  0.59021971  0.32480057    -0.88200
H1111       H  0.03532716  0.63735351  0.23443291     0.35900
H1112       H  0.03499212  0.66392496  0.25416719     0.41000
H1113       H  0.96513236  0.57546967  0.31696383     0.40600
H1114       H  0.96477815  0.60253625  0.33569529     0.35500
C1115       C  0.75564703  0.62141894  0.28587303    -0.26200
C1116       C  0.77559587  0.62202345  0.30391725    -0.14300
C1117       C  0.76950956  0.62167336  0.33028089     0.36300
C1118       C  0.74352007  0.62204559  0.33801438    -0.25700
C1119       C  0.72348873  0.62289967  0.32000938    -0.14900
C1120       C  0.72974608  0.62214298  0.29354115     0.37400
N1121       N  0.71035574  0.62168849  0.27396083    -0.89100
H1122       H  0.76020953  0.62128868  0.26564435     0.18500
H1123       H  0.73890236  0.62225837  0.35822218     0.18500
N1124       N  0.78977725  0.62085492  0.34910461    -0.88200
H1125       H  0.70021511  0.63914456  0.27416957     0.35900
H1126       H  0.69761603  0.60643759  0.27759983     0.41000
H1127       H  0.79953752  0.60328942  0.34691864     0.40600
H1128       H  0.78206609  0.62087083  0.36758518     0.35500
C1129       C  0.98233684  0.64209594  0.04362089    -0.26200
C1130       C  0.96921985  0.61880623  0.03919028    -0.14300
C1131       C  0.98353279  0.59606077  0.03443652     0.36300
C1132       C  0.01052872  0.59725713  0.03333610    -0.25700
C1133       C  0.02370390  0.62066507  0.03730261    -0.14900
C1134       C  0.00946451  0.64327531  0.04289779     0.37400
N1135       N  0.02248575  0.66749383  0.04692380    -0.89100
H1136       H  0.97130019  0.65954363  0.04718433     0.18500
H1137       H  0.02129327  0.57977758  0.02915627     0.18500
N1138       N  0.97116451  0.57177659  0.02955416    -0.88200
H1139       H  0.00918324  0.68212592  0.05108555     0.35900
H1140       H  0.03140078  0.67263758  0.02972004     0.41000
H1141       H  0.95862456  0.57399209  0.01402939     0.40600
H1142       H  0.96034336  0.56664717  0.04564163     0.35500
C1143       C  0.89013428  0.61053705  0.42447028    -0.26200
C1144       C  0.86900596  0.62320041  0.43580436    -0.14300
C1145       C  0.85000528  0.63464969  0.42022507     0.36300
C1146       C  0.85246904  0.63327676  0.39371755    -0.25700
C1147       C  0.87347652  0.62047927  0.38219791    -0.14900
C1148       C  0.89254355  0.60894564  0.39773047     0.37400
N1149       N  0.91444089  0.59621699  0.38640054    -0.89100
H1150       H  0.90476558  0.60184340  0.43656320     0.18500
H1151       H  0.83771608  0.64228349  0.38199453     0.18500
N1152       N  0.82851959  0.64852649  0.43076990    -0.88200
H1153       H  0.92653586  0.58863544  0.40055522     0.35900
H1154       H  0.92522011  0.61021901  0.37670078     0.41000
H1155       H  0.83564131  0.66316021  0.44263162     0.40600
H1156       H  0.81746041  0.63582058  0.44177923     0.35500
C1157       C  0.86238210  0.60203948  0.14522180    -0.26200
C1158       C  0.87463543  0.62187676  0.13165267    -0.14300
C1159       C  0.88527647  0.64295610  0.14505037     0.36300
C1160       C  0.88341070  0.64396329  0.17175368    -0.25700
C1161       C  0.87054001  0.62450863  0.18545284    -0.14900
C1162       C  0.85987621  0.60323520  0.17198091     0.37400
N1163       N  0.84717625  0.58258667  0.18542995    -0.89100
H1164       H  0.85397130  0.58598960  0.13481605     0.18500
H1165       H  0.89190752  0.66020248  0.18180006     0.18500
N1166       N  0.89836864  0.66320277  0.13158024    -0.88200
H1167       H  0.84254526  0.56752116  0.17290804     0.35900
H1168       H  0.82952902  0.58973994  0.19213225     0.41000
H1169       H  0.91730414  0.66428455  0.13850661     0.40600
H1170       H  0.88911472  0.68066018  0.13580731     0.35500
C1171       C  0.74036829  0.62552845  0.08926580    -0.26200
C1172       C  0.72038415  0.62659952  0.07125530    -0.14300
C1173       C  0.72660821  0.62617324  0.04486653     0.36300
C1174       C  0.75271249  0.62564119  0.03718530    -0.25700
C1175       C  0.77275610  0.62575650  0.05524091    -0.14900
C1176       C  0.76631603  0.62542933  0.08165768     0.37400
N1177       N  0.78561338  0.62449550  0.10130490    -0.89100
H1178       H  0.73582490  0.62551213  0.10949637     0.18500
H1179       H  0.75743801  0.62561547  0.01700094     0.18500
N1180       N  0.70641132  0.62604738  0.02595417    -0.88200
H1181       H  0.79632373  0.64160258  0.10098482     0.35900
H1182       H  0.79786026  0.60880077  0.09782400     0.41000
H1183       H  0.69613551  0.60876449  0.02799020     0.40600
H1184       H  0.71421661  0.62591850  0.00751335     0.35500
C1185       C  0.98945494  0.37839164  0.48798688    -0.26200
C1186       C  0.97549658  0.37476691  0.46521875    -0.14300
C1187       C  0.98927194  0.37239117  0.44187065     0.36300
C1188       C  0.01633527  0.37388246  0.44190079    -0.25700
C1189       C  0.03009194  0.37694598  0.46478916    -0.14900
C1190       C  0.01653993  0.37937925  0.48804489     0.37400
N1191       N  0.03079228  0.37950527  0.01350084    -0.89100
H1192       H  0.97945495  0.37806905  0.00774341     0.18500
H1193       H  0.02672570  0.37198865  0.42399870     0.18500
N1194       N  0.97646879  0.36888618  0.41783464    -0.88200
H1195       H  0.01801517  0.37971693  0.02899261     0.35900
H1196       H  0.04055954  0.39719869  0.01378918     0.41000
H1197       H  0.96323396  0.38394005  0.41526429     0.40600
H1198       H  0.96659505  0.35127300  0.41812625     0.35500
C1199       C  0.76289443  0.36003438  0.45560052    -0.26200
C1200       C  0.77858418  0.38116250  0.44906070    -0.14300
C1201       C  0.76781904  0.40091454  0.43338790     0.36300
C1202       C  0.74232186  0.39880945  0.42467261    -0.25700
C1203       C  0.72676717  0.37754854  0.43102121    -0.14900
C1204       C  0.73739699  0.35798289  0.44697228     0.37400
N1205       N  0.72318742  0.33546222  0.45451978    -0.89100
H1206       H  0.77054101  0.34459072  0.46737545     0.18500
H1207       H  0.73456499  0.41422938  0.41293228     0.18500
N1208       N  0.78194691  0.42353190  0.42600804    -0.88200
H1209       H  0.71640602  0.32601923  0.43816989     0.35900
H1210       H  0.70767367  0.34100455  0.46608809     0.41000
H1211       H  0.79758258  0.41809754  0.41455671     0.40600
H1212       H  0.78854447  0.43296185  0.44244159     0.35500
C1213       C  0.86340081  0.49429375  0.97824763    -0.26200
C1214       C  0.87638593  0.47332158  0.49386291    -0.14300
C1215       C  0.88592401  0.48097592  0.51812850     0.36300
C1216       C  0.88260225  0.50653360  0.52657806    -0.25700
C1217       C  0.86868385  0.52737207  0.01116541    -0.14900
C1218       C  0.86016311  0.51999941  0.98644838     0.37400
N1219       N  0.84875873  0.53864339  0.96944331    -0.89100
H1220       H  0.85683642  0.48888604  0.95932065     0.18500
H1221       H  0.89005265  0.51191145  0.54519944     0.18500
N1222       N  0.89871451  0.46289196  0.53456844    -0.88200
H1223       H  0.84289403  0.52988936  0.95238093     0.35900
H1224       H  0.86315503  0.55193640  0.96452382     0.41000
H1225       H  0.88844558  0.46193025  0.55176435     0.40600
H1226       H  0.91721600  0.46998252  0.53854394     0.35500
C1227       C  0.98274601  0.39779303  0.22040110    -0.26200
C1228       C  0.96940698  0.37527657  0.21335086    -0.14300
C1229       C  0.98349931  0.35368389  0.20435693     0.36300
C1230       C  0.01063751  0.35498564  0.20319966    -0.25700
C1231       C  0.02397947  0.37720629  0.21118269    -0.14900
C1232       C  0.00979762  0.39911453  0.21919846     0.37400
N1233       N  0.02286561  0.42268363  0.22597882    -0.89100
H1234       H  0.97197462  0.41457122  0.22677529     0.18500
H1235       H  0.02146332  0.33817330  0.19701698     0.18500
N1236       N  0.97037144  0.33025613  0.19724868    -0.88200
H1237       H  0.00961730  0.43683637  0.23166048     0.35900
H1238       H  0.03191754  0.42968339  0.20950056     0.41000
H1239       H  0.96183813  0.32267786  0.21374812     0.40600
H1240       H  0.98355888  0.31638516  0.19080086     0.35500
C1241       C  0.87258642  0.40020144  0.33002700    -0.26200
C1242       C  0.86803053  0.37635737  0.31804966    -0.14300
C1243       C  0.86650988  0.35372820  0.33285526     0.36300
C1244       C  0.86984484  0.35540155  0.35948160    -0.25700
C1245       C  0.87428182  0.37930106  0.37162105    -0.14900
C1246       C  0.87556631  0.40199538  0.35666145     0.37400
N1247       N  0.88038678  0.42666540  0.36840312    -0.89100
H1248       H  0.87409297  0.41750071  0.31843195     0.18500
H1249       H  0.86871175  0.33793408  0.37084463     0.18500
N1250       N  0.86273766  0.32907498  0.32072768    -0.88200
H1251       H  0.88037973  0.44138238  0.35470686     0.35900
H1252       H  0.89901912  0.42613234  0.37614597     0.41000
H1253       H  0.84414275  0.32896497  0.31290161     0.40600
H1254       H  0.86319627  0.31421464  0.33426146     0.35500
C1255       C  0.84992899  0.38992369  0.10816878    -0.26200
C1256       C  0.87051120  0.37855893  0.12163180    -0.14300
C1257       C  0.88998867  0.36521577  0.10801537     0.36300
C1258       C  0.88848205  0.36361051  0.08131642    -0.25700
C1259       C  0.86795445  0.37489091  0.06787371    -0.14900
C1260       C  0.84840144  0.38811920  0.08148014     0.37400
N1261       N  0.82736896  0.40064657  0.06868020    -0.89100
H1262       H  0.83481910  0.40006008  0.11845892     0.18500
H1263       H  0.90366098  0.35378201  0.07082684     0.18500
N1264       N  0.91152652  0.35380727  0.12126672    -0.88200
H1265       H  0.81691195  0.38671475  0.05856336     0.35900
H1266       H  0.83496594  0.41398246  0.05567900     0.41000
H1267       H  0.92212935  0.36881313  0.12960254     0.40600
H1268       H  0.92396066  0.34452942  0.10844262     0.35500
C1269       C  0.75175604  0.38481675  0.21650217    -0.26200
C1270       C  0.77199545  0.37922610  0.19964314    -0.14300
C1271       C  0.76622844  0.37361341  0.17374275     0.36300
C1272       C  0.74055486  0.37418071  0.16517122    -0.25700
C1273       C  0.72033740  0.38098121  0.18170754    -0.14900
C1274       C  0.72598764  0.38591248  0.20782105     0.37400
N1275       N  0.70553050  0.39190272  0.22548014    -0.89100
H1276       H  0.75614261  0.38895475  0.23634727     0.18500
H1277       H  0.73648768  0.37003252  0.14526270     0.18500
N1278       N  0.78607537  0.36699878  0.15576158    -0.88200
H1279       H  0.71292854  0.39527860  0.24378553     0.35900
H1280       H  0.69365926  0.37560953  0.22689202     0.41000
H1281       H  0.79638564  0.35118059  0.16289095     0.40600
H1282       H  0.79870265  0.38264046  0.15389086     0.35500
C1283       C  0.89197974  0.48435543  0.25621478    -0.26200
C1284       C  0.87203499  0.47596050  0.23978760    -0.14300
C1285       C  0.85132319  0.49296994  0.23467192     0.36300
C1286       C  0.85086104  0.51745715  0.24638331    -0.25700
C1287       C  0.87072475  0.52580658  0.26293314    -0.14900
C1288       C  0.89153618  0.50884134  0.26791902     0.37400
N1289       N  0.91240232  0.51649440  0.28444110    -0.89100
H1290       H  0.90802974  0.47155524  0.26031818     0.18500
H1291       H  0.83482135  0.53025390  0.24224321     0.18500
N1292       N  0.83053018  0.48531198  0.21807356    -0.88200
H1293       H  0.92685055  0.50235688  0.28482105     0.35900
H1294       H  0.90502807  0.51752013  0.30302524     0.41000
H1295       H  0.83801908  0.48414777  0.19954233     0.40600
H1296       H  0.81615595  0.49951809  0.21752822     0.35500
C1297       C  0.14543487  0.23364231  0.45735972    -0.26200
C1298       C  0.12483029  0.22065679  0.46920038    -0.14300
C1299       C  0.10448459  0.23518195  0.48016030     0.36300
C1300       C  0.10551188  0.26230346  0.47929025    -0.25700
C1301       C  0.12609406  0.27521421  0.46728915    -0.14900
C1302       C  0.14641615  0.26063851  0.45636377     0.37400
N1303       N  0.16822751  0.27318066  0.44462632    -0.89100
H1304       H  0.16119005  0.22267421  0.44905932     0.18500
H1305       H  0.09039515  0.27291734  0.98733341     0.18500
N1306       N  0.08279263  0.22200579  0.99057958    -0.88200
H1307       H  0.18105765  0.25961453  0.43695453     0.35900
H1308       H  0.17831454  0.28292108  0.45902898     0.41000
H1309       H  0.07352180  0.21265453  0.97540830     0.40600
H1310       H  0.06962311  0.23551911  0.99776478     0.35500
C1311       C  0.14576831  0.23700685  0.23236795    -0.26200
C1312       C  0.12603199  0.22347866  0.21955109    -0.14300
C1313       C  0.10623140  0.23809367  0.20742808     0.36300
C1314       C  0.10698741  0.26509139  0.20805121    -0.25700
C1315       C  0.12700997  0.27865454  0.22032094    -0.14900
C1316       C  0.14654120  0.26412310  0.23288957     0.37400
N1317       N  0.16769088  0.27607483  0.24603029    -0.89100
H1318       H  0.16109898  0.22645515  0.24187634     0.18500
H1319       H  0.09159864  0.27553835  0.19851185     0.18500
N1320       N  0.08486650  0.22639883  0.19436447    -0.88200
H1321       H  0.16038689  0.28746764  0.26087328     0.35900
H1322       H  0.17792372  0.28763351  0.23314204     0.41000
H1323       H  0.07502627  0.21424987  0.20702250     0.40600
H1324       H  0.09176653  0.21585119  0.17874804     0.35500
C1325       C  0.10703302  0.11367832  0.32922823    -0.26200
C1326       C  0.12921159  0.12336414  0.31670775    -0.14300
C1327       C  0.15108431  0.13004577  0.33153449     0.36300
C1328       C  0.14988021  0.12757734  0.35826809    -0.25700
C1329       C  0.12767285  0.11797251  0.37051046    -0.14900
C1330       C  0.10604852  0.11091748  0.35587283     0.37400
N1331       N  0.08291442  0.10172052  0.36812282    -0.89100
H1332       H  0.09008954  0.10838689  0.31824827     0.18500
H1333       H  0.16651233  0.13299739  0.36969091     0.18500
N1334       N  0.17441951  0.13917803  0.31962976    -0.88200
H1335       H  0.06878102  0.09717356  0.35455428     0.35900
H1336       H  0.07545952  0.11687854  0.37911349     0.41000
H1337       H  0.18232458  0.12373960  0.30935548     0.40600
H1338       H  0.18817095  0.14420516  0.33342018     0.35500
C1339       C  0.14179181  0.10450664  0.10823625    -0.26200
C1340       C  0.12224477  0.11873245  0.12046443    -0.14300
C1341       C  0.10542888  0.13405581  0.10537646     0.36300
C1342       C  0.10882220  0.13503072  0.07891757    -0.25700
C1343       C  0.12872074  0.12122761  0.06663787    -0.14900
C1344       C  0.14529575  0.10559035  0.08175194     0.37400
N1345       N  0.16567064  0.09029300  0.07100717    -0.89100
H1346       H  0.15494860  0.09274868  0.11941355     0.18500
H1347       H  0.09561990  0.14688469  0.06790106     0.18500
N1348       N  0.08433576  0.14841915  0.11608165    -0.88200
H1349       H  0.17891502  0.10250625  0.06197429     0.35900
H1350       H  0.15777445  0.07743385  0.05771232     0.41000
H1351       H  0.09161339  0.16314196  0.12769545     0.40600
H1352       H  0.07287816  0.13592975  0.12696704     0.35500
C1353       C  0.39965886  0.26135981  0.40482196    -0.26200
C1354       C  0.37591263  0.27451417  0.40484600    -0.14300
C1355       C  0.35265729  0.26022400  0.40506182     0.36300
C1356       C  0.35367934  0.23307940  0.40499450    -0.25700
C1357       C  0.37740673  0.21990934  0.40450514    -0.14900
C1358       C  0.40065420  0.23431142  0.40442131     0.37400
N1359       N  0.42549655  0.22205852  0.40484478    -0.89100
H1360       H  0.41759458  0.27219818  0.40490502     0.18500
H1361       H  0.33583723  0.22209697  0.40537371     0.18500
N1362       N  0.32812982  0.27329958  0.40598459    -0.88200
H1363       H  0.42760183  0.21105195  0.38822550     0.35900
H1364       H  0.42634386  0.20977313  0.42068931     0.41000
H1365       H  0.32710549  0.28313994  0.42342296     0.40600
H1366       H  0.31293053  0.25997438  0.40594068     0.35500
C1367       C  0.27223150  0.11554141  0.45467906    -0.26200
C1368       C  0.27664684  0.11991531  0.42853201    -0.14300
C1369       C  0.25563058  0.12390150  0.41199365     0.36300
C1370       C  0.23049039  0.12377923  0.42207235    -0.25700
C1371       C  0.22594721  0.11976516  0.44835086    -0.14900
C1372       C  0.24717480  0.11513039  0.46470995     0.37400
N1373       N  0.24405894  0.11082647  0.49158098    -0.89100
H1374       H  0.28846606  0.11247429  0.46744387     0.18500
H1375       H  0.21431221  0.12709973  0.40931358     0.18500
N1376       N  0.25992421  0.12884718  0.38527955    -0.88200
H1377       H  0.25229656  0.11295513  0.00330857     0.35900
H1378       H  0.22499176  0.12988400  0.99853348     0.41000
H1379       H  0.26985896  0.14638497  0.38379713     0.40600
H1380       H  0.24232957  0.13135853  0.37574395     0.35500
C1381       C  0.39254372  0.26023701  0.15295388    -0.26200
C1382       C  0.36920585  0.27397576  0.15210898    -0.14300
C1383       C  0.34550777  0.26037878  0.15142196     0.36300
C1384       C  0.34575215  0.23322721  0.15140371    -0.25700
C1385       C  0.36906181  0.21952694  0.15313507    -0.14900
C1386       C  0.39273274  0.23311887  0.15382118     0.37400
N1387       N  0.41683989  0.21933013  0.15531718    -0.89100
H1388       H  0.41066217  0.27074558  0.15359056     0.18500
H1389       H  0.32763873  0.22270330  0.15092664     0.18500
N1390       N  0.32134515  0.27410164  0.15022972    -0.88200
H1391       H  0.43241611  0.23219833  0.15591806     0.35900
H1392       H  0.41885415  0.20861109  0.13848353     0.41000
H1393       H  0.31839297  0.28290098  0.16797828     0.40600
H1394       H  0.30597610  0.26119451  0.14783827     0.35500
C1395       C  0.35428686  0.10455690  0.26819752    -0.26200
C1396       C  0.37457233  0.11685049  0.25522263    -0.14300
C1397       C  0.39337674  0.13052098  0.26952508     0.36300
C1398       C  0.39115176  0.13196067  0.29605737    -0.25700
C1399       C  0.37047626  0.12027545  0.30912830    -0.14900
C1400       C  0.35192233  0.10612884  0.29476344     0.37400
N1401       N  0.33057864  0.09290163  0.30631988    -0.89100
H1402       H  0.33968503  0.09405691  0.25755088     0.18500
H1403       H  0.40586416  0.14251620  0.30648084     0.18500
N1404       N  0.41533191  0.14266341  0.25788896    -0.88200
H1405       H  0.31886308  0.10634998  0.31571144     0.35900
H1406       H  0.33766604  0.07932965  0.31935929     0.41000
H1407       H  0.40909533  0.15805435  0.24654761     0.40600
H1408       H  0.42497057  0.12907688  0.24655618     0.35500
C1409       C  0.38866197  0.10465446  0.04789680    -0.26200
C1410       C  0.36864040  0.11896335  0.05959185    -0.14300
C1411       C  0.34997366  0.13115956  0.04400935     0.36300
C1412       C  0.35262230  0.12987726  0.01735372    -0.25700
C1413       C  0.37311580  0.11630909  0.00584824    -0.14900
C1414       C  0.39114007  0.10325702  0.02125387     0.37400
N1415       N  0.41229021  0.08930936  0.00990336    -0.89100
H1416       H  0.40285548  0.09476498  0.05956334     0.18500
H1417       H  0.33846252  0.13950821  0.00540858     0.18500
N1418       N  0.32869670  0.14514187  0.05506977    -0.88200
H1419       H  0.42366723  0.08057037  0.02398476     0.35900
H1420       H  0.42364762  0.10072534  0.49924337     0.41000
H1421       H  0.31645024  0.13159409  0.06362832     0.40600
H1422       H  0.31773103  0.15419069  0.04085895     0.35500
C1423       C  0.26849722  0.12678036  0.20309659    -0.26200
C1424       C  0.27322543  0.12215541  0.17700488    -0.14300
C1425       C  0.25202168  0.11887595  0.16021679     0.36300
C1426       C  0.22685283  0.11953073  0.17015990    -0.25700
C1427       C  0.22210550  0.12361326  0.19635541    -0.14900
C1428       C  0.24317918  0.12771103  0.21294401     0.37400
N1429       N  0.23890041  0.13207587  0.23975414    -0.89100
H1430       H  0.28474536  0.12943645  0.21592752     0.18500
H1431       H  0.21076288  0.11649687  0.15721258     0.18500
N1432       N  0.25506104  0.11355798  0.13338666    -0.88200
H1433       H  0.25646225  0.13497616  0.24923616     0.35900
H1434       H  0.23084013  0.11522495  0.24737657     0.41000
H1435       H  0.27439353  0.11165367  0.12809555     0.40600
H1436       H  0.24756391  0.12930931  0.12329679     0.35500
C1437       C  0.37387059  0.76086746  0.37015680    -0.26200
C1438       C  0.37866144  0.77395238  0.34713526    -0.14300
C1439       C  0.38211015  0.75965907  0.32450025     0.36300
C1440       C  0.38054909  0.73266941  0.32509050    -0.25700
C1441       C  0.37515910  0.71941797  0.34789446    -0.14900
C1442       C  0.37187275  0.73366891  0.37076146     0.37400
N1443       N  0.36680274  0.72055506  0.39445687    -0.89100
H1444       H  0.37119388  0.77191939  0.38756050     0.18500
H1445       H  0.38323056  0.72203113  0.30742887     0.18500
N1446       N  0.38763531  0.77252441  0.30086862    -0.88200
H1447       H  0.36464959  0.73386372  0.40935727     0.35900
H1448       H  0.38308470  0.70941902  0.39883184     0.41000
H1449       H  0.37327127  0.76751304  0.28770257     0.40600
H1450       H  0.40530629  0.76558214  0.29398713     0.35500
C1451       C  0.39495115  0.98534738  0.36785098    -0.26200
C1452       C  0.37160576  0.97229014  0.36329550    -0.14300
C1453       C  0.34799356  0.98489442  0.36879213     0.36300
C1454       C  0.34828789  0.00992254  0.37933557    -0.25700
C1455       C  0.37164237  0.02265151  0.38477972    -0.14900
C1456       C  0.39523100  0.01021595  0.37857529     0.37400
N1457       N  0.41972480  0.02260722  0.38221449    -0.89100
H1458       H  0.41317352  0.97588395  0.36369078     0.18500
H1459       H  0.33013780  0.01957148  0.38338405     0.18500
N1460       N  0.32379514  0.97230314  0.36345118    -0.88200
H1461       H  0.42222312  0.02634147  0.40168784     0.35900
H1462       H  0.41965286  0.04013942  0.37227771     0.41000
H1463       H  0.32259010  0.96972115  0.34365870     0.40600
H1464       H  0.30825419  0.98412676  0.36864143     0.35500
C1465       C  0.34671748  0.76226642  0.09469420    -0.26200
C1466       C  0.36994970  0.77548222  0.09910800    -0.14300
C1467       C  0.39270187  0.76129955  0.10422495     0.36300
C1468       C  0.39172775  0.73410508  0.10451755    -0.25700
C1469       C  0.36870985  0.72082788  0.09898451    -0.14900
C1470       C  0.34586428  0.73509942  0.09432189     0.37400
N1471       N  0.32187827  0.72198854  0.08928252    -0.89100
H1472       H  0.32927496  0.77323135  0.09089646     0.18500
H1473       H  0.40922652  0.72321124  0.10823784     0.18500
N1474       N  0.41654503  0.77450638  0.10965276    -0.88200
H1475       H  0.30702182  0.73528582  0.08597702     0.35900
H1476       H  0.31682764  0.71177802  0.10578978     0.41000
H1477       H  0.42266136  0.78348337  0.09281437     0.40600
H1478       H  0.43102628  0.76126461  0.11446371     0.35500
C1479       C  0.35855123  0.89278491  0.48291371    -0.26200
C1480       C  0.37647774  0.87771690  0.49647028    -0.14300
C1481       C  0.39344099  0.86142893  0.48281838     0.36300
C1482       C  0.39175052  0.85999232  0.45614719    -0.25700
C1483       C  0.37356794  0.87472214  0.44250236    -0.14900
C1484       C  0.35702791  0.89169079  0.45610490     0.37400
N1485       N  0.33902077  0.90804492  0.44278711    -0.89100
H1486       H  0.34548657  0.90536791  0.49328699     0.18500
H1487       H  0.40486402  0.84719137  0.44609566     0.18500
N1488       N  0.41277244  0.84660702  0.49586597    -0.88200
H1489       H  0.34978625  0.92140854  0.43222340     0.35900
H1490       H  0.32793404  0.91880088  0.45568925     0.41000
H1491       H  0.43017297  0.85342158  0.98880863     0.40600
H1492       H  0.40984341  0.82709578  0.49152981     0.35500
C1493       C  0.39369060  0.88835556  0.20413307    -0.26200
C1494       C  0.37278259  0.87511397  0.19264585    -0.14300
C1495       C  0.35391095  0.86363560  0.20853281     0.36300
C1496       C  0.35688289  0.86496288  0.23515389    -0.25700
C1497       C  0.37789254  0.87790663  0.24645182    -0.14900
C1498       C  0.39642824  0.88986714  0.23080641     0.37400
N1499       N  0.41822171  0.90293495  0.24195845    -0.89100
H1500       H  0.40823021  0.89749014  0.19229041     0.18500
H1501       H  0.34241363  0.85602503  0.24726192     0.18500
N1502       N  0.33190669  0.85053711  0.19782428    -0.88200
H1503       H  0.43000224  0.91086717  0.22773591     0.35900
H1504       H  0.42939447  0.88907391  0.25142395     0.41000
H1505       H  0.32004634  0.86458756  0.18952489     0.40600
H1506       H  0.32084902  0.84187408  0.21219832     0.35500
C1507       C  0.35000938  0.97941217  0.13283643    -0.26200
C1508       C  0.36710453  0.97267554  0.11308892    -0.14300
C1509       C  0.38472489  0.99109755  0.10391670     0.36300
C1510       C  0.38520286  0.01576971  0.11467561    -0.25700
C1511       C  0.36841017  0.02285600  0.13480197    -0.14900
C1512       C  0.35019562  0.00443357  0.14363496     0.37400
N1513       N  0.33217473  0.01091509  0.16354969    -0.89100
H1514       H  0.33676472  0.96494505  0.14011416     0.18500
H1515       H  0.39916464  0.02941836  0.10719453     0.18500
N1516       N  0.40268944  0.98505655  0.08392519    -0.88200
H1517       H  0.32101893  0.99482223  0.16849725     0.35900
H1518       H  0.31930242  0.02454616  0.15608046     0.41000
H1519       H  0.39220265  0.97909664  0.06788149     0.40600
H1520       H  0.41429844  0.96967100  0.08993737     0.35500
C1521       C  0.10423679  0.76388036  0.26959858    -0.26200
C1522       C  0.12760626  0.77653331  0.27520845    -0.14300
C1523       C  0.15010048  0.76181786  0.27976219     0.36300
C1524       C  0.14846376  0.73482291  0.28005055    -0.25700
C1525       C  0.12500856  0.72211351  0.27529402    -0.14900
C1526       C  0.10264396  0.73673582  0.26971219     0.37400
N1527       N  0.07834013  0.72410003  0.26498054    -0.89100
H1528       H  0.08699279  0.77520639  0.26597672     0.18500
H1529       H  0.16573388  0.72358018  0.28381930     0.18500
N1530       N  0.17460648  0.77432265  0.28375848    -0.88200
H1531       H  0.06391108  0.73768232  0.26101796     0.35900
H1532       H  0.07284186  0.71474707  0.28184419     0.41000
H1533       H  0.17943013  0.78391210  0.26682159     0.40600
H1534       H  0.18917936  0.76069069  0.28696385     0.35500
C1535       C  0.11045672  0.98762396  0.26333671    -0.26200
C1536       C  0.13415752  0.97452920  0.26151261    -0.14300
C1537       C  0.15529625  0.98712854  0.24958984     0.36300
C1538       C  0.15194575  0.01201053  0.23909201    -0.25700
C1539       C  0.12810456  0.02491137  0.24060781    -0.14900
C1540       C  0.10711886  0.01247475  0.25292360     0.37400
N1541       N  0.08227406  0.02489278  0.25441627    -0.89100
H1542       H  0.09409452  0.97805602  0.27214906     0.18500
H1543       H  0.16825046  0.02165410  0.23025188     0.18500
N1544       N  0.18018436  0.97478453  0.24841185    -0.88200
H1545       H  0.06902193  0.01331148  0.26424164     0.35900
H1546       H  0.07525631  0.02680675  0.23576399     0.41000
H1547       H  0.18686689  0.97273102  0.26717023     0.40600
H1548       H  0.19355989  0.98652590  0.23894062     0.35500
C1549       C  0.23362029  0.87864415  0.32696017    -0.26200
C1550       C  0.22944923  0.87507206  0.30066998    -0.14300
C1551       C  0.25066429  0.87154494  0.28424810     0.36300
C1552       C  0.27572474  0.87102261  0.29465696    -0.25700
C1553       C  0.27998406  0.87426679  0.32111102    -0.14900
C1554       C  0.25853486  0.87868508  0.33728376     0.37400
N1555       N  0.26125095  0.88257252  0.36426293    -0.89100
H1556       H  0.21727619  0.88152537  0.33962754     0.18500
H1557       H  0.29204845  0.86799823  0.28200599     0.18500
N1558       N  0.24666262  0.86787668  0.25729019    -0.88200
H1559       H  0.27188855  0.89945197  0.36736908     0.35900
H1560       H  0.27122710  0.86684393  0.37201084     0.41000
H1561       H  0.23656042  0.85054213  0.25487512     0.40600
H1562       H  0.26435801  0.86562884  0.24786944     0.35500
C1563       C  0.13945624  0.76145457  0.01003431    -0.26200
C1564       C  0.12901572  0.77499440  0.03093814    -0.14300
C1565       C  0.11844417  0.76071464  0.05155481     0.36300
C1566       C  0.11784193  0.73357600  0.05036160    -0.25700
C1567       C  0.12804726  0.71999133  0.02939259    -0.14900
C1568       C  0.13895593  0.73420376  0.00892291     0.37400
N1569       N  0.15496630  0.72164272  0.48841985    -0.89100
H1570       H  0.15277499  0.77283549  0.49516256     0.18500
H1571       H  0.10976879  0.72292595  0.06630499     0.18500
N1572       N  0.10875868  0.77369579  0.07392830    -0.88200
H1573       H  0.16412535  0.73474854  0.47619726     0.35900
H1574       H  0.14044167  0.71271698  0.47767424     0.41000
H1575       H  0.12446002  0.78263123  0.08290810     0.40600
H1576       H  0.10125908  0.76043809  0.08706275     0.35500
C1577       C  0.15033650  0.86256482  0.41868589    -0.26200
C1578       C  0.13272962  0.87770562  0.43250724    -0.14300
C1579       C  0.11612991  0.89469417  0.41896729     0.36300
C1580       C  0.11638437  0.89504291  0.39220371    -0.25700
C1581       C  0.13302758  0.87897145  0.37835509    -0.14900
C1582       C  0.15086996  0.86314778  0.39180217     0.37400
N1583       N  0.16957649  0.84782006  0.37820372    -0.89100
H1584       H  0.16353655  0.84996343  0.42884817     0.18500
H1585       H  0.10304563  0.90767016  0.38223442     0.18500
N1586       N  0.09900348  0.91186926  0.43222670    -0.88200
H1587       H  0.18095420  0.83712719  0.39089833     0.35900
H1588       H  0.18208406  0.86055222  0.36882770     0.41000
H1589       H  0.08009610  0.90787447  0.42634666     0.40600
H1590       H  0.10344305  0.93080278  0.42678974     0.35500
C1591       C  0.11724876  0.85788583  0.16982122    -0.26200
C1592       C  0.13454987  0.87491819  0.18185801    -0.14300
C1593       C  0.14789925  0.89331262  0.16679433     0.36300
C1594       C  0.14321368  0.89451571  0.14051220    -0.25700
C1595       C  0.12564189  0.87765054  0.12853423    -0.14900
C1596       C  0.11271750  0.85889757  0.14360254     0.37400
N1597       N  0.09450639  0.84085352  0.13319924    -0.89100
H1598       H  0.10685613  0.84357295  0.18093005     0.18500
H1599       H  0.15371671  0.90869564  0.12934886     0.18500
N1600       N  0.16581624  0.91144311  0.17750492    -0.88200
H1601       H  0.10406784  0.82830934  0.12071521     0.35900
H1602       H  0.08009380  0.85101926  0.12343694     0.41000
H1603       H  0.18108839  0.90126697  0.18586275     0.40600
H1604       H  0.15633106  0.92240381  0.19144021     0.35500
C1605       C  0.14862437  0.01309195  0.00142951    -0.26200
C1606       C  0.12791891  0.02463139  0.49085066    -0.14300
C1607       C  0.10523553  0.00967188  0.48815130     0.36300
C1608       C  0.10457339  0.98454251  0.49826483    -0.25700
C1609       C  0.12527355  0.97325617  0.00986909    -0.14900
C1610       C  0.14800960  0.98815849  0.01199658     0.37400
N1611       N  0.17062288  0.97779145  0.02427774    -0.89100
H1612       H  0.16620130  0.02435937  0.00309976     0.18500
H1613       H  0.08722271  0.97305526  0.49586545     0.18500
N1614       N  0.08275390  0.02011714  0.47569225    -0.88200
H1615       H  0.18549544  0.99147493  0.02467621     0.35900
H1616       H  0.17730368  0.96243479  0.01307483     0.41000
H1617       H  0.07584693  0.03527092  0.48703499     0.40600
H1618       H  0.06793745  0.00639007  0.47490550     0.35500
C1619       C  0.25380848  0.88410340  0.09124039    -0.26200
C1620       C  0.27344119  0.87368365  0.07599218    -0.14300
C1621       C  0.26719127  0.86369594  0.05161323     0.36300
C1622       C  0.24167707  0.86469643  0.04274149    -0.25700
C1623       C  0.22198632  0.87598173  0.05744909    -0.14900
C1624       C  0.22810124  0.88536106  0.08231857     0.37400
N1625       N  0.20829210  0.89604111  0.09850102    -0.89100
H1626       H  0.25866538  0.89181466  0.10990179     0.18500
H1627       H  0.23737722  0.85711327  0.02390245     0.18500
N1628       N  0.28647382  0.85233877  0.03545128    -0.88200
H1629       H  0.21612157  0.90248273  0.11580043     0.35900
H1630       H  0.19547826  0.88110862  0.10307245     0.41000
H1631       H  0.29535368  0.83727451  0.04547271     0.40600
H1632       H  0.30042978  0.86629431  0.03120576     0.35500
C1633       C  0.51560065  0.09655202  0.41942529    -0.26200
C1634       C  0.52835248  0.11898064  0.41089864    -0.14300
C1635       C  0.51311198  0.14039937  0.40305120     0.36300
C1636       C  0.48618657  0.13868702  0.40345876    -0.25700
C1637       C  0.47340418  0.11611805  0.41132989    -0.14900
C1638       C  0.48850220  0.09483414  0.41966913     0.37400
N1639       N  0.47709651  0.07097515  0.42776578    -0.89100
H1640       H  0.52676140  0.07991997  0.42549515     0.18500
H1641       H  0.47512846  0.15539135  0.39737286     0.18500
N1642       N  0.52413949  0.16442893  0.39488219    -0.88200
H1643       H  0.46533570  0.06394510  0.41306592     0.35900
H1644       H  0.46584193  0.07442238  0.44400325     0.41000
H1645       H  0.53434845  0.16153329  0.37788656     0.40600
H1646       H  0.53655141  0.17129253  0.40912480     0.35500
C1647       C  0.62995400  0.23771598  0.42818443    -0.26200
C1648       C  0.62427630  0.22441140  0.40548313    -0.14300
C1649       C  0.61870831  0.23882837  0.38311744     0.36300
C1650       C  0.61925764  0.26590857  0.38399031    -0.25700
C1651       C  0.62516080  0.27916559  0.40672423    -0.14900
C1652       C  0.63015887  0.26479162  0.42918940     0.37400
N1653       N  0.63500532  0.27764466  0.45311008    -0.89100
H1654       H  0.63383518  0.22688853  0.44549604     0.18500
H1655       H  0.61538255  0.27664754  0.36662089     0.18500
N1656       N  0.61328386  0.22667424  0.35909122    -0.88200
H1657       H  0.63878401  0.26425819  0.46760667     0.35900
H1658       H  0.61802737  0.28727833  0.45833244     0.41000
H1659       H  0.59624814  0.21596152  0.36076782     0.40600
H1660       H  0.62856112  0.21425132  0.35455398     0.35500
C1661       C  0.51161990  0.14765751  0.15543641    -0.26200
C1662       C  0.52544700  0.12462460  0.15954613    -0.14300
C1663       C  0.51168001  0.10131724  0.16337113     0.36300
C1664       C  0.48451600  0.10166090  0.16326365    -0.25700
C1665       C  0.47083800  0.12471835  0.15954143    -0.14900
C1666       C  0.48456498  0.14796264  0.15554239     0.37400
N1667       N  0.47157343  0.17193331  0.15066198    -0.89100
H1668       H  0.52190727  0.16561372  0.15221657     0.18500
H1669       H  0.47390793  0.08381136  0.16602718     0.18500
N1670       N  0.52524642  0.07729264  0.16670698    -0.88200
H1671       H  0.46021092  0.17659293  0.16652415     0.35900
H1672       H  0.45948384  0.16951949  0.13481623     0.41000
H1673       H  0.53496568  0.07328951  0.14962662     0.40600
H1674       H  0.51224319  0.06209715  0.16959604     0.35500
C1675       C  0.63045499  0.24200348  0.17916958    -0.26200
C1676       C  0.62386855  0.22856261  0.15672469    -0.14300
C1677       C  0.61764966  0.24282392  0.13444123     0.36300
C1678       C  0.61817090  0.27005959  0.13522674    -0.25700
C1679       C  0.62437611  0.28326881  0.15782133    -0.14900
C1680       C  0.63048466  0.26913633  0.18003716     0.37400
N1681       N  0.63749860  0.28239300  0.20320060    -0.89100
H1682       H  0.63521563  0.23128796  0.19632829     0.18500
H1683       H  0.61353442  0.28106500  0.11820763     0.18500
N1684       N  0.61114451  0.22972116  0.11106242    -0.88200
H1685       H  0.64285337  0.26918021  0.21736438     0.35900
H1686       H  0.62100918  0.29181683  0.21003109     0.41000
H1687       H  0.62761344  0.21975858  0.10493785     0.40600
H1688       H  0.60666719  0.24302669  0.09668698     0.35500
C1689       C  0.61258442  0.14344210  0.26953802    -0.26200
C1690       C  0.62337445  0.12244822  0.25632812    -0.14300
C1691       C  0.63752863  0.10353057  0.27007509     0.36300
C1692       C  0.64011498  0.10606468  0.29665086    -0.25700
C1693       C  0.62909553  0.12697520  0.30984742    -0.14900
C1694       C  0.61527395  0.14596126  0.29609489     0.37400
N1695       N  0.60439345  0.16795312  0.30905552    -0.89100
H1696       H  0.60230293  0.15822411  0.25893138     0.18500
H1697       H  0.65071566  0.09140316  0.30710549     0.18500
N1698       N  0.65054918  0.08227095  0.25788484    -0.88200
H1699       H  0.59472057  0.18000027  0.29616830     0.35900
H1700       H  0.61972135  0.17874771  0.31653598     0.41000
H1701       H  0.64897784  0.08286506  0.23804034     0.40600
H1702       H  0.64162450  0.06522234  0.26398183     0.35500
C1703       C  0.63486268  0.10495066  0.04839134    -0.26200
C1704       C  0.62725541  0.12818098  0.06017572    -0.14300
C1705       C  0.61764252  0.14853577  0.04486793     0.36300
C1706       C  0.61642083  0.14547981  0.01837715    -0.25700
C1707       C  0.62402129  0.12231955  0.00652614    -0.14900
C1708       C  0.63324202  0.10174866  0.02168861     0.37400
N1709       N  0.64157234  0.07804423  0.00994294    -0.89100
H1710       H  0.64194691  0.08918510  0.06009937     0.18500
H1711       H  0.60953051  0.16149184  0.00687480     0.18500
N1712       N  0.60978990  0.17284006  0.05550385    -0.88200
H1713       H  0.64758197  0.06481110  0.02383061     0.35900
H1714       H  0.65443278  0.07886758  0.49802232     0.41000
H1715       H  0.62499968  0.18026305  0.06643800     0.40600
H1716       H  0.59374007  0.16991868  0.06727210     0.35500
C1717       C  0.98702426  0.09805770  0.45793886    -0.26200
C1718       C  0.97396533  0.12088070  0.46466862    -0.14300
C1719       C  0.98850429  0.14324461  0.47060751     0.36300
C1720       C  0.01561001  0.14183401  0.47103641    -0.25700
C1721       C  0.02867271  0.11878463  0.46514213    -0.14900
C1722       C  0.01418559  0.09668488  0.45826028     0.37400
N1723       N  0.02696804  0.07271514  0.45241302    -0.89100
H1724       H  0.97598385  0.08088396  0.45332183     0.18500
H1725       H  0.02663721  0.15897727  0.47582226     0.18500
N1726       N  0.97577522  0.16736784  0.47599603    -0.88200
H1727       H  0.01352127  0.05850331  0.44739041     0.35900
H1728       H  0.03600160  0.06629522  0.46913043     0.41000
H1729       H  0.96628445  0.17318436  0.45930821     0.40600
H1730       H  0.98926655  0.18180165  0.48022694     0.35500
C1731       C  0.89761350  0.23576290  0.47121101    -0.26200
C1732       C  0.87466665  0.22220039  0.47581338    -0.14300
C1733       C  0.85167195  0.23590973  0.48089367     0.36300
C1734       C  0.85198609  0.26310906  0.48048550    -0.25700
C1735       C  0.87470164  0.27680421  0.47459545    -0.14900
C1736       C  0.89793160  0.26290816  0.47047761     0.37400
N1737       N  0.92177798  0.27633843  0.46563738    -0.89100
H1738       H  0.91526129  0.22506527  0.46756201     0.18500
H1739       H  0.83422369  0.27362778  0.48402520     0.18500
N1740       N  0.82827676  0.22220943  0.48697411    -0.88200
H1741       H  0.93690228  0.26325373  0.46268475     0.35900
H1742       H  0.92641434  0.28678405  0.48212901     0.41000
H1743       H  0.82234544  0.21234831  0.47055304     0.40600
H1744       H  0.81208879  0.23709653  0.98681771     0.35500
C1745       C  0.75688078  0.12405412  0.46542922    -0.26200
C1746       C  0.77714429  0.12171959  0.44782069    -0.14300
C1747       C  0.77118486  0.11859531  0.42150916     0.36300
C1748       C  0.74539983  0.11900337  0.41337914    -0.25700
C1749       C  0.72518638  0.12290453  0.43078685    -0.14900
C1750       C  0.73096104  0.12471767  0.45724572     0.37400
N1751       N  0.71050624  0.12709094  0.47574475    -0.89100
H1752       H  0.76132244  0.12600934  0.48558602     0.18500
H1753       H  0.74121358  0.11699318  0.39317276     0.18500
N1754       N  0.79083157  0.11446134  0.40260557    -0.88200
H1755       H  0.71802832  0.12843873  0.49425315     0.35900
H1756       H  0.69964293  0.11005588  0.47512479     0.41000
H1757       H  0.80216983  0.09870521  0.40818281     0.40600
H1758       H  0.80247801  0.13089582  0.40138315     0.35500
C1759       C  0.98388674  0.10100202  0.21447005    -0.26200
C1760       C  0.97043160  0.12450994  0.21600470    -0.14300
C1761       C  0.98443469  0.14796090  0.21643671     0.36300
C1762       C  0.01162268  0.14728656  0.21619311    -0.25700
C1763       C  0.02501515  0.12370376  0.21584001    -0.14900
C1764       C  0.01090703  0.10033435  0.21463151     0.37400
N1765       N  0.02345210  0.07568974  0.21298347    -0.89100
H1766       H  0.97332104  0.08292051  0.21382585     0.18500
H1767       H  0.02243489  0.16522268  0.21679843     0.18500
N1768       N  0.97103749  0.17231382  0.21691776    -0.88200
H1769       H  0.03424726  0.07266994  0.22959113     0.35900
H1770       H  0.03595198  0.07588030  0.19727146     0.41000
H1771       H  0.96077326  0.17397507  0.19977385     0.40600
H1772       H  0.98418488  0.18766176  0.21732832     0.35500
C1773       C  0.88966032  0.23765834  0.22780300    -0.26200
C1774       C  0.86673519  0.22381900  0.22329784    -0.14300
C1775       C  0.84337320  0.23766790  0.21951825     0.36300
C1776       C  0.84352015  0.26470136  0.22038732    -0.25700
C1777       C  0.86659676  0.27838985  0.22399737    -0.14900
C1778       C  0.88989040  0.26479420  0.22791761     0.37400
N1779       N  0.91365364  0.27862089  0.23203080    -0.89100
H1780       H  0.90762514  0.22726186  0.23066079     0.18500
H1781       H  0.82560509  0.27512613  0.21729790     0.18500
N1782       N  0.81918236  0.22496310  0.21502328    -0.88200
H1783       H  0.92907144  0.26576324  0.23440409     0.35900
H1784       H  0.91184752  0.28879021  0.24921763     0.41000
H1785       H  0.81583883  0.21181826  0.22983204     0.40600
H1786       H  0.82017895  0.21502224  0.19766370     0.35500
C1787       C  0.86734409  0.10049237  0.33100430    -0.26200
C1788       C  0.87187703  0.12413911  0.31859437    -0.14300
C1789       C  0.87943117  0.14577644  0.33301872     0.36300
C1790       C  0.88202123  0.14362315  0.35954309    -0.25700
C1791       C  0.87739166  0.12009382  0.37214362    -0.14900
C1792       C  0.87009995  0.09818798  0.35770095     0.37400
N1793       N  0.86491940  0.07396173  0.37013961    -0.89100
H1794       H  0.86181219  0.08375644  0.31979997     0.18500
H1795       H  0.88746756  0.16062420  0.37039943     0.18500
N1796       N  0.88376808  0.17020297  0.32086350    -0.88200
H1797       H  0.86016955  0.05977247  0.35669498     0.35900
H1798       H  0.84856583  0.07648536  0.38163146     0.41000
H1799       H  0.90266679  0.17605914  0.32496659     0.40600
H1800       H  0.87110564  0.18369209  0.32893102     0.35500
C1801       C  0.89227607  0.10934672  0.10810885    -0.26200
C1802       C  0.87366685  0.12305822  0.12216485    -0.14300
C1803       C  0.85457059  0.13756204  0.10897169     0.36300
C1804       C  0.85475382  0.13818101  0.08219931    -0.25700
C1805       C  0.87362313  0.12496605  0.06830053    -0.14900
C1806       C  0.89263149  0.11038548  0.08123721     0.37400
N1807       N  0.91164890  0.09604266  0.06704943    -0.89100
H1808       H  0.90683132  0.09817732  0.11810651     0.18500
H1809       H  0.84017313  0.14920233  0.07205762     0.18500
N1810       N  0.83484699  0.15141734  0.12271436    -0.88200
H1811       H  0.92334924  0.08530615  0.07941813     0.35900
H1812       H  0.92382508  0.10935748  0.05807075     0.41000
H1813       H  0.82339203  0.13778971  0.13212959     0.40600
H1814       H  0.82263410  0.16131047  0.11014462     0.35500
C1815       C  0.75387192  0.12698915  0.21675858    -0.26200
C1816       C  0.77328865  0.11791778  0.20048971    -0.14300
C1817       C  0.76668275  0.10976344  0.17542637     0.36300
C1818       C  0.74112372  0.11245621  0.16683555    -0.25700
C1819       C  0.72183957  0.12300013  0.18258789    -0.14900
C1820       C  0.72820674  0.12948868  0.20823946     0.37400
N1821       N  0.70869500  0.13865240  0.22562946    -0.89100
H1822       H  0.75894704  0.13302867  0.23596032     0.18500
H1823       H  0.73644655  0.10656499  0.14749606     0.18500
N1824       N  0.78515812  0.09819128  0.15834120    -0.88200
H1825       H  0.71674235  0.14312768  0.24342810     0.35900
H1826       H  0.69573042  0.12346725  0.22875320     0.41000
H1827       H  0.80321033  0.09573579  0.16691179     0.40600
H1828       H  0.78755683  0.11064274  0.14280235     0.35500
C1829       C  0.85344941  0.76500055  0.27705573    -0.26200
C1830       C  0.87693066  0.77837653  0.27968799    -0.14300
C1831       C  0.90005761  0.76414537  0.28308523     0.36300
C1832       C  0.89912350  0.73696528  0.28369046    -0.25700
C1833       C  0.87557541  0.72371299  0.28159977    -0.14900
C1834       C  0.85245008  0.73785630  0.27842148     0.37400
N1835       N  0.82813274  0.72462360  0.27587475    -0.89100
H1836       H  0.83567704  0.77581733  0.27460997     0.18500
H1837       H  0.91682714  0.72603385  0.28618012     0.18500
N1838       N  0.92442123  0.77727491  0.28569409    -0.88200
H1839       H  0.81327626  0.73776728  0.27202028     0.35900
H1840       H  0.82372486  0.71638050  0.29358232     0.41000
H1841       H  0.92817968  0.78672854  0.26842762     0.40600
H1842       H  0.93943909  0.76401798  0.28839666     0.35500
C1843       C  0.99145993  0.87902621  0.25816133    -0.26200
C1844       C  0.97818240  0.87856774  0.28152816    -0.14300
C1845       C  0.99227161  0.87976756  0.30461156     0.36300
C1846       C  0.01946025  0.88097937  0.30376266    -0.25700
C1847       C  0.03273795  0.88063821  0.28035170    -0.14900
C1848       C  0.01840856  0.87971739  0.25728645     0.37400
N1849       N  0.03055780  0.88006491  0.23265167    -0.89100
H1850       H  0.98078802  0.87836388  0.24032952     0.18500
H1851       H  0.03036011  0.88173110  0.32144040     0.18500
N1852       N  0.97896208  0.88013564  0.32873505    -0.88200
H1853       H  0.04141197  0.86320117  0.23034427     0.35900
H1854       H  0.04280800  0.89610440  0.23162783     0.41000
H1855       H  0.96818287  0.89721746  0.32955859     0.40600
H1856       H  0.99217218  0.88090788  0.34384837     0.35500
C1857       C  0.85465276  0.98949250  0.26271039    -0.26200
C1858       C  0.87792873  0.97600075  0.25954032    -0.14300
C1859       C  0.89840099  0.98776754  0.24582150     0.36300
C1860       C  0.89496236  0.01258591  0.23545455    -0.25700
C1861       C  0.87169485  0.02614369  0.23872633    -0.14900
C1862       C  0.85116411  0.01423879  0.25227072     0.37400
N1863       N  0.82669676  0.02713928  0.25517714    -0.89100
H1864       H  0.83873870  0.98035154  0.27269650     0.18500
H1865       H  0.91088238  0.02170408  0.22546081     0.18500
N1866       N  0.92274632  0.97467614  0.24273521    -0.88200
H1867       H  0.81386253  0.01590451  0.26589969     0.35900
H1868       H  0.81856953  0.02902140  0.23696829     0.41000
H1869       H  0.93098132  0.97267900  0.26088472     0.40600
H1870       H  0.93558685  0.98584777  0.23195600     0.35500
C1871       C  0.86379883  0.76510077  0.04786154    -0.26200
C1872       C  0.87253464  0.77778947  0.02578722    -0.14300
C1873       C  0.88148066  0.76293975  0.00487294     0.36300
C1874       C  0.88172357  0.73579645  0.00675700    -0.25700
C1875       C  0.87303915  0.72318670  0.02895885    -0.14900
C1876       C  0.86420225  0.73815308  0.04986369     0.37400
N1877       N  0.85621511  0.72609632  0.07336650    -0.89100
H1878       H  0.85725312  0.77630790  0.06412573     0.18500
H1879       H  0.88842870  0.72443548  0.99066244     0.18500
N1880       N  0.89003043  0.77532075  0.98176849    -0.88200
H1881       H  0.84963363  0.73984795  0.08649985     0.35900
H1882       H  0.87256571  0.71754445  0.08154284     0.41000
H1883       H  0.87400164  0.78447919  0.97361937     0.40600
H1884       H  0.89636216  0.76161976  0.96846387     0.35500
C1885       C  0.98354342  0.85377538  0.03381972    -0.26200
C1886       C  0.97134741  0.87786089  0.03121462    -0.14300
C1887       C  0.98642314  0.90038313  0.02858024     0.36300
C1888       C  0.01351320  0.89833210  0.02883746    -0.25700
C1889       C  0.02576455  0.87427592  0.03188648    -0.14900
C1890       C  0.01049809  0.85176346  0.03444180     0.37400
N1891       N  0.02174498  0.82656488  0.03677409    -0.89100
H1892       H  0.97199501  0.83637591  0.03552985     0.18500
H1893       H  0.02515828  0.91560405  0.02662685     0.18500
N1894       N  0.97419170  0.92508721  0.02501497    -0.88200
H1895       H  0.03252730  0.82582422  0.05364570     0.35900
H1896       H  0.03408023  0.82348533  0.02122893     0.41000
H1897       H  0.96431796  0.92452524  0.00757676     0.40600
H1898       H  0.98805733  0.93970362  0.02340425     0.35500
C1899       C  0.88788840  0.86141283  0.41868525    -0.26200
C1900       C  0.86928778  0.87660867  0.43123523    -0.14300
C1901       C  0.85430134  0.89410233  0.41673880     0.36300
C1902       C  0.85819729  0.89598169  0.39024706    -0.25700
C1903       C  0.87684443  0.88074017  0.37777332    -0.14900
C1904       C  0.89189465  0.86338595  0.39233934     0.37400
N1905       N  0.91161932  0.84793011  0.38063398    -0.89100
H1906       H  0.89975483  0.84796361  0.42939002     0.18500
H1907       H  0.84629850  0.90927515  0.37938976     0.18500
N1908       N  0.83545145  0.91036039  0.42875562    -0.88200
H1909       H  0.90742256  0.82849214  0.38419764     0.35900
H1910       H  0.92925770  0.85229023  0.38940460     0.41000
H1911       H  0.81749859  0.90666215  0.42031898     0.40600
H1912       H  0.84033483  0.92960084  0.42500731     0.35500
C1913       C  0.88495402  0.89907973  0.14108724    -0.26200
C1914       C  0.87380537  0.87874990  0.12717845    -0.14300
C1915       C  0.86128296  0.85848926  0.14098903     0.36300
C1916       C  0.86113585  0.85873926  0.16768156    -0.25700
C1917       C  0.87323766  0.87845811  0.18143050    -0.14900
C1918       C  0.88484915  0.89921080  0.16781726     0.37400
N1919       N  0.89608072  0.92111480  0.18042517    -0.89100
H1920       H  0.89406309  0.91505358  0.13117255     0.18500
H1921       H  0.85192207  0.84292591  0.17777246     0.18500
N1922       N  0.84839873  0.83728015  0.12881327    -0.88200
H1923       H  0.91247791  0.91525864  0.19052977     0.35900
H1924       H  0.88249888  0.92894799  0.19305556     0.41000
H1925       H  0.86179254  0.82663095  0.11818435     0.40600
H1926       H  0.83375079  0.84441125  0.11699980     0.35500
C1927       C  0.84754921  0.98864983  0.00536896    -0.26200
C1928       C  0.87111032  0.97624437  0.01071660    -0.14300
C1929       C  0.89491089  0.98723379  0.50359383     0.36300
C1930       C  0.89421018  0.01225206  0.49326893    -0.25700
C1931       C  0.87066639  0.02534192  0.48980135    -0.14900
C1932       C  0.84680907  0.01393847  0.99555830     0.37400
N1933       N  0.82239620  0.02618921  0.99039662    -0.89100
H1934       H  0.82956049  0.97847733  0.00879384     0.18500
H1935       H  0.91224798  0.02175027  0.48847699     0.18500
N1936       N  0.91951633  0.97481635  0.50633659    -0.88200
H1937       H  0.80706301  0.01397854  0.99528118     0.35900
H1938       H  0.82051757  0.02841085  0.47295445     0.41000
H1939       H  0.92030512  0.96069791  0.99989183     0.40600
H1940       H  0.92246630  0.97063810  0.52565971     0.35500
C1941       C  0.61007283  0.76794285  0.34753991    -0.26200
C1942       C  0.63437199  0.77998768  0.34695511    -0.14300
C1943       C  0.65695702  0.76467361  0.34787940     0.36300
C1944       C  0.65463126  0.73754586  0.34860775    -0.25700
C1945       C  0.63023683  0.72554748  0.34894194    -0.14900
C1946       C  0.60776369  0.74108480  0.34883374     0.37400
N1947       N  0.58231227  0.73015879  0.34897301    -0.89100
H1948       H  0.59262565  0.77955337  0.34698902     0.18500
H1949       H  0.67190496  0.72567841  0.34862869     0.18500
N1950       N  0.68205501  0.77661278  0.34732946    -0.88200
H1951       H  0.57979926  0.71981751  0.36594379     0.35900
H1952       H  0.58059528  0.71750033  0.33347904     0.41000
H1953       H  0.68408109  0.78577795  0.32963108     0.40600
H1954       H  0.69661154  0.76261523  0.34830133     0.35500
C1955       C  0.51789422  0.89987267  0.34216502    -0.26200
C1956       C  0.53115039  0.87631006  0.33950019    -0.14300
C1957       C  0.51670417  0.85318458  0.33719450     0.36300
C1958       C  0.48966494  0.85404514  0.33839197    -0.25700
C1959       C  0.47645487  0.87757306  0.34113095    -0.14900
C1960       C  0.49069666  0.90079250  0.34274826     0.37400
N1961       N  0.47754573  0.92511432  0.34562216    -0.89100
H1962       H  0.52883894  0.91764808  0.34390983     0.18500
H1963       H  0.47884829  0.83615322  0.33701975     0.18500
N1964       N  0.52889139  0.82846205  0.33452066    -0.88200
H1965       H  0.49082688  0.94032953  0.34639172     0.35900
H1966       H  0.46803396  0.92486166  0.36326167     0.41000
H1967       H  0.54161602  0.82578133  0.34982358     0.40600
H1968       H  0.53936264  0.82822723  0.31743982     0.35500
C1969       C  0.61519122  0.98327565  0.38569874    -0.26200
C1970       C  0.63204781  0.97623914  0.36564568    -0.14300
C1971       C  0.65002533  0.99470160  0.35675775     0.36300
C1972       C  0.64994137  0.01973505  0.36731882    -0.25700
C1973       C  0.63265729  0.02694556  0.38696577    -0.14900
C1974       C  0.61518500  0.00821919  0.39636069     0.37400
N1975       N  0.59729309  0.01441563  0.41650601    -0.89100
H1976       H  0.60152480  0.96928450  0.39307838     0.18500
H1977       H  0.66363421  0.03373588  0.36000841     0.18500
N1978       N  0.66842988  0.98812526  0.33720269    -0.88200
H1979       H  0.58715411  0.99796420  0.42235542     0.35900
H1980       H  0.58349182  0.02702541  0.40890550     0.41000
H1981       H  0.68130277  0.97470511  0.34504191     0.40600
H1982       H  0.67952301  0.00422508  0.33214550     0.35500
C1983       C  0.73328730  0.87736355  0.29262744    -0.26200
C1984       C  0.72876734  0.88070257  0.31895895    -0.14300
C1985       C  0.74992799  0.88350942  0.33561967     0.36300
C1986       C  0.77517874  0.88296025  0.32563607    -0.25700
C1987       C  0.77983000  0.87947823  0.29932080    -0.14900
C1988       C  0.75849817  0.87643104  0.28270210     0.37400
N1989       N  0.76175547  0.87321799  0.25569472    -0.89100
H1990       H  0.71705626  0.87528837  0.27968150     0.18500
H1991       H  0.79141183  0.88533018  0.33853393     0.18500
N1992       N  0.74568581  0.88755036  0.36248614    -0.88200
H1993       H  0.77210148  0.85618842  0.25242058     0.35900
H1994       H  0.77248524  0.88881786  0.24871031     0.41000
H1995       H  0.73619796  0.90527327  0.36460614     0.40600
H1996       H  0.76331142  0.88923903  0.37213927     0.35500
C1997       C  0.62444728  0.74134267  0.07056857    -0.26200
C1998       C  0.62240849  0.72820355  0.09397928    -0.14300
C1999       C  0.62294354  0.74253176  0.11700431     0.36300
C2000       C  0.62585802  0.76962459  0.11603192    -0.25700
C2001       C  0.62738612  0.78267582  0.09256184    -0.14900
C2002       C  0.62674681  0.76837552  0.06959622     0.37400
N2003       N  0.62880352  0.78136052  0.04536569    -0.89100
H2004       H  0.62417356  0.73041875  0.05288318     0.18500
H2005       H  0.62628113  0.78068314  0.13362726     0.18500
N2006       N  0.62137053  0.72955783  0.14124913    -0.88200
H2007       H  0.62788038  0.76809255  0.03030820     0.35900
H2008       H  0.64710824  0.78989927  0.04448674     0.41000
H2009       H  0.60262292  0.72223830  0.14304242     0.40600
H2010       H  0.62371951  0.74273573  0.15623150     0.35500
C2011       C  0.48501784  0.89482415  0.10361644    -0.26200
C2012       C  0.47184451  0.87745234  0.08757982    -0.14300
C2013       C  0.48644348  0.86215513  0.07030497     0.36300
C2014       C  0.51363637  0.86396780  0.07032132    -0.25700
C2015       C  0.52675868  0.88053754  0.08721362    -0.14900
C2016       C  0.51206433  0.89675284  0.10353335     0.37400
N2017       N  0.52450159  0.91516128  0.12010180    -0.89100
H2018       H  0.47417563  0.90705912  0.11656300     0.18500
H2019       H  0.52465568  0.85172752  0.05752247     0.18500
N2020       N  0.47386021  0.84469209  0.05290567    -0.88200
H2021       H  0.51096113  0.92491894  0.13139062     0.35900
H2022       H  0.53319678  0.92913427  0.10850072     0.41000
H2023       H  0.46634185  0.82945948  0.06372346     0.40600
H2024       H  0.48726179  0.83640659  0.04037281     0.35500
C2025       C  0.62753823  0.90498622  0.47825540    -0.26200
C2026       C  0.63032111  0.88292401  0.49353387    -0.14300
C2027       C  0.63763073  0.85920069  0.48197182     0.36300
C2028       C  0.64079240  0.85790376  0.45525873    -0.25700
C2029       C  0.63666997  0.87973607  0.44003941    -0.14900
C2030       C  0.63040909  0.90350958  0.45166776     0.37400
N2031       N  0.62684039  0.92622210  0.43638345    -0.89100
H2032       H  0.62240932  0.92333303  0.48688492     0.18500
H2033       H  0.64560031  0.83967117  0.44622297     0.18500
N2034       N  0.64186771  0.83656096  0.49735547    -0.88200
H2035       H  0.63998241  0.94024228  0.44258070     0.35900
H2036       H  0.60816444  0.93323717  0.43963414     0.41000
H2037       H  0.66574350  0.84585064  0.00860897     0.40600
H2038       H  0.64679773  0.82074814  0.48588999     0.35500
C2039       C  0.65000338  0.89130727  0.20304842    -0.26200
C2040       C  0.63153395  0.87634790  0.19016230    -0.14300
C2041       C  0.61222084  0.86343471  0.20434055     0.36300
C2042       C  0.61161645  0.86584212  0.23091349    -0.25700
C2043       C  0.62962500  0.88131506  0.24392351    -0.14900
C2044       C  0.64926345  0.89399374  0.22984099     0.37400
N2045       N  0.66853670  0.90921782  0.24272267    -0.89100
H2046       H  0.66467204  0.90138085  0.19211263     0.18500
H2047       H  0.59669056  0.85571369  0.24145835     0.18500
N2048       N  0.59323531  0.84734627  0.19229034    -0.88200
H2049       H  0.68131041  0.91745786  0.22954864     0.35900
H2050       H  0.67950978  0.89668468  0.25403945     0.41000
H2051       H  0.60281043  0.83336341  0.18138610     0.40600
H2052       H  0.58188631  0.85867161  0.18015960     0.35500
C2053       C  0.64060814  0.99645336  0.10636561    -0.26200
C2054       C  0.62198873  0.97928570  0.11585880    -0.14300
C2055       C  0.60481126  0.98808592  0.13519620     0.36300
C2056       C  0.60734191  0.01334461  0.14496016    -0.25700
C2057       C  0.62628430  0.03040559  0.13572514    -0.14900
C2058       C  0.64311462  0.02167819  0.11601626     0.37400
N2059       N  0.66282943  0.03829312  0.10570822    -0.89100
H2060       H  0.65386140  0.98998284  0.09165659     0.18500
H2061       H  0.59408483  0.01983894  0.15965739     0.18500
N2062       N  0.58471310  0.97153016  0.14485087    -0.88200
H2063       H  0.67232595  0.02946886  0.09036387     0.35900
H2064       H  0.67676558  0.04091376  0.11995741     0.41000
H2065       H  0.57162899  0.96831556  0.12994209     0.40600
H2066       H  0.57431676  0.98069327  0.15941155     0.35500
C2067       C  0.74344704  0.87743584  0.08652852    -0.26200
C2068       C  0.72345351  0.88464989  0.06998217    -0.14300
C2069       C  0.72929574  0.89022869  0.04408652     0.36300
C2070       C  0.75500548  0.88847779  0.03540898    -0.25700
C2071       C  0.77501212  0.88100834  0.05190009    -0.14900
C2072       C  0.76918355  0.87600316  0.07797210     0.37400
N2073       N  0.78944121  0.86999117  0.09586272    -0.89100
H2074       H  0.73902183  0.87340078  0.10638117     0.18500
H2075       H  0.75934094  0.89240321  0.01551962     0.18500
N2076       N  0.70901661  0.89697791  0.02648792    -0.88200
H2077       H  0.78187066  0.86659509  0.11409130     0.35900
H2078       H  0.80126264  0.88631381  0.09743727     0.41000
H2079       H  0.69689375  0.88091481  0.02465745     0.40600
H2080       H  0.71655201  0.90062344  0.00829289     0.35500
Zn2081     Zn  0.60297381  0.89888332  0.61605033     1.49700
Zn2082     Zn  0.64166701  0.90961200  0.57074659     1.49400
Zn2083     Zn  0.65155180  0.86229143  0.61011413     1.49100
Zn2084     Zn  0.60580073  0.86030410  0.56964442     1.49500
O2085       O  0.62577287  0.88270263  0.59172175    -1.84000
O2086       O  0.60791798  0.93698454  0.61697367    -0.74600
O2087       O  0.67975271  0.90337986  0.56938942    -0.74500
O2088       O  0.64994378  0.86993626  0.64828158    -0.74000
O2089       O  0.63529061  0.94575305  0.58547963    -0.74700
O2090       O  0.61074854  0.88759908  0.65149861    -0.74300
O2091       O  0.68705515  0.86963217  0.59473273    -0.74800
O2092       O  0.61219564  0.82299502  0.57795571    -0.74200
O2093       O  0.63219415  0.90570305  0.53322051    -0.75000
O2094       O  0.64398553  0.82380459  0.60655291    -0.74400
O2095       O  0.61679164  0.86558422  0.53333341    -0.74800
O2096       O  0.56746494  0.86728820  0.57336479    -0.74800
O2097       O  0.56612369  0.89210130  0.60793321    -0.74500
C2098       C  0.62143996  0.95302557  0.60440368     0.77200
C2099       C  0.69490692  0.88635750  0.57849650     0.77700
C2100       C  0.63109344  0.87842261  0.66161563     0.76700
C2101       C  0.62777999  0.81139837  0.59287918     0.77100
C2102       C  0.62603795  0.88495378  0.52146665     0.78200
C2103       C  0.55472978  0.87992142  0.59010504     0.77300
Zn2104     Zn  0.65740337  0.85952472  0.86143610     1.49700
Zn2105     Zn  0.60790767  0.89665972  0.86501574     1.49400
Zn2106     Zn  0.64834115  0.90522024  0.82093666     1.49100
Zn2107     Zn  0.61106558  0.85630769  0.82057337     1.49500
O2108       O  0.63142449  0.87918446  0.84206510    -1.84000
O2109       O  0.65484574  0.86906412  0.89948555    -0.74600
O2110       O  0.61365743  0.93451931  0.86495702    -0.74500
O2111       O  0.68624789  0.89692519  0.81806383    -0.74000
O2112       O  0.61611955  0.88797281  0.90100925    -0.74700
O2113       O  0.69374033  0.86607696  0.84670584    -0.74300
O2114       O  0.64418858  0.94167418  0.83616325    -0.74800
O2115       O  0.61986767  0.86270190  0.78364477    -0.74200
O2116       O  0.57045114  0.88982462  0.85710516    -0.75000
O2117       O  0.63633978  0.90232377  0.78425136    -0.74400
O2118       O  0.57250140  0.86154737  0.82524653    -0.74800
O2119       O  0.61835493  0.81934605  0.82939751    -0.74800
O2120       O  0.65011689  0.82089915  0.85803482    -0.74500
C2121       C  0.63630987  0.87945284  0.91202548     0.77200
C2122       C  0.62933269  0.94977846  0.85398097     0.77700
C2123       C  0.70157434  0.88109341  0.82889839     0.76700
C2124       C  0.62846198  0.88253973  0.77193024     0.77100
C2125       C  0.55943585  0.87538542  0.84068895     0.78200
C2126       C  0.63403708  0.80810559  0.84450755     0.77300
Zn2127     Zn  0.89309229  0.85550037  0.50780912     1.49700
Zn2128     Zn  0.89234572  0.90180871  0.54850313     1.49400
Zn2129     Zn  0.84535077  0.89520583  0.50856354     1.49100
Zn2130     Zn  0.85312336  0.85458501  0.55182636     1.49500
O2131       O  0.87127179  0.87715772  0.52904404    -1.84000
O2132       O  0.93081364  0.86111777  0.51579707    -0.74600
O2133       O  0.88655600  0.93849031  0.53495147    -0.74500
O2134       O  0.84997278  0.88626655  0.97061164    -0.74000
O2135       O  0.93045229  0.89398088  0.54323957    -0.74700
O2136       O  0.88829023  0.86680196  0.97104125    -0.74300
O2137       O  0.85385061  0.93282742  0.50791690    -0.74800
O2138       O  0.81586371  0.86289567  0.55363143    -0.74200
O2139       O  0.88471922  0.89795745  0.58697875    -0.75000
O2140       O  0.80877756  0.89186484  0.52336349    -0.74400
O2141       O  0.86491355  0.86003237  0.58693770    -0.74800
O2142       O  0.85718940  0.81732541  0.54353156    -0.74800
O2143       O  0.88577448  0.81732969  0.51208030    -0.74500
C2144       C  0.94264488  0.87727858  0.52995619     0.77200
C2145       C  0.87067003  0.94728410  0.51840425     0.77700
C2146       C  0.86962502  0.87710441  0.95889453     0.76700
C2147       C  0.80079345  0.87839398  0.54223081     0.77100
C2148       C  0.87496391  0.87870937  0.59898608     0.78200
C2149       C  0.87100578  0.80522279  0.52741034     0.77300
Zn2150     Zn  0.85995485  0.90445011  0.80013163     1.49700
Zn2151     Zn  0.85259617  0.85805087  0.76051302     1.49400
Zn2152     Zn  0.90099257  0.89626050  0.75671032     1.49100
Zn2153     Zn  0.89942996  0.85674543  0.80133151     1.49500
O2154       O  0.87793595  0.87850676  0.77974989    -1.84000
O2155       O  0.82228418  0.89573067  0.80253925    -0.74600
O2156       O  0.85652974  0.86645885  0.72232082    -0.74500
O2157       O  0.89340704  0.93364303  0.75540313    -0.74000
O2158       O  0.81555964  0.86484323  0.77374529    -0.74700
O2159       O  0.86348190  0.94068730  0.78487056    -0.74300
O2160       O  0.89511798  0.88544462  0.72119579    -0.74800
O2161       O  0.93790492  0.86457022  0.79777678    -0.74200
O2162       O  0.86007964  0.81959191  0.76578853    -0.75000
O2163       O  0.93830206  0.89216205  0.76540514    -0.74400
O2164       O  0.89285450  0.81901038  0.79337767    -0.74800
O2165       O  0.89037430  0.86376343  0.83776825    -0.74800
O2166       O  0.87133376  0.90239886  0.83678709    -0.74500
C2167       C  0.80728908  0.87989886  0.79133623     0.77200
C2168       C  0.87540088  0.87642419  0.70990408     0.77700
C2169       C  0.87794594  0.94878011  0.76677872     0.76700
C2170       C  0.95014911  0.87921540  0.78238937     0.77100
C2171       C  0.87663712  0.80720658  0.77916968     0.78200
C2172       C  0.88068174  0.88328916  0.84909938     0.77300
Zn2173     Zn  0.89501116  0.14613598  0.74033575     1.49700
Zn2174     Zn  0.85382829  0.14637141  0.69680196     1.49400
Zn2175     Zn  0.89274209  0.09936573  0.70051630     1.49100
Zn2176     Zn  0.84731125  0.10698110  0.74201925     1.49500
O2177       O  0.87241364  0.12437444  0.72008182    -1.84000
O2178       O  0.88655365  0.18386482  0.73615039    -0.74600
O2179       O  0.86637820  0.14168080  0.66142360    -0.74500
O2180       O  0.93100283  0.10680173  0.70461017    -0.74000
O2181       O  0.85596684  0.18391000  0.70644050    -0.74700
O2182       O  0.93217563  0.14110068  0.73022526    -0.74300
O2183       O  0.88486223  0.10285901  0.66248696    -0.74800
O2184       O  0.85411581  0.06906511  0.74148481    -0.74200
O2185       O  0.81689114  0.13593805  0.69479220    -0.75000
O2186       O  0.88579525  0.06287191  0.71349400    -0.74400
O2187       O  0.81018027  0.11175098  0.72929025    -0.74800
O2188       O  0.85321735  0.11635196  0.77925003    -0.74800
O2189       O  0.89069637  0.13747093  0.77746227    -0.74500
C2190       C  0.87032285  0.19586766  0.72224348     0.77200
C2191       C  0.87561476  0.12201432  0.65009273     0.77700
C2192       C  0.94355545  0.12441728  0.71630476     0.76700
C2193       C  0.86988901  0.05416978  0.73008350     0.77100
C2194       C  0.80206424  0.12255503  0.70887080     0.78200
C2195       C  0.87270267  0.12670545  0.79021941     0.77300
Zn2196     Zn  0.85808400  0.14747186  0.94682508     1.49700
Zn2197     Zn  0.89366858  0.09841106  0.95119820     1.49400
Zn2198     Zn  0.89743998  0.14472914  0.99167477     1.49100
Zn2199     Zn  0.84810155  0.10820223  0.99161977     1.49500
O2200       O  0.87449958  0.12439246  0.97051621    -1.84000
O2201       O  0.87198473  0.14241368  0.91169733    -0.74600
O2202       O  0.93205028  0.10530025  0.95455774    -0.74500
O2203       O  0.89046242  0.18323169  0.98816526    -0.74000
O2204       O  0.88499769  0.10141135  0.91306927    -0.74700
O2205       O  0.86111302  0.18473656  0.95720084    -0.74300
O2206       O  0.93423851  0.13800810  0.98198749    -0.74800
O2207       O  0.85250628  0.11649468  0.52833594    -0.74200
O2208       O  0.88669856  0.06237479  0.96576591    -0.75000
O2209       O  0.89267749  0.13213609  0.52797100    -0.74400
O2210       O  0.85416745  0.06990885  0.99258380    -0.74800
O2211       O  0.81185310  0.11385625  0.97710755    -0.74800
O2212       O  0.82086230  0.13886732  0.94386076    -0.74500
C2213       C  0.87885359  0.12169017  0.90047521     0.77200
C2214       C  0.94517170  0.12179453  0.96721115     0.77700
C2215       C  0.87514796  0.19594402  0.97380113     0.76700
C2216       C  0.87304641  0.12358984  0.53994746     0.77100
C2217       C  0.87023504  0.05449658  0.98222231     0.78200
C2218       C  0.80490137  0.12560381  0.95676875     0.77300
Zn2219     Zn  0.65331754  0.10950243  0.63741333     1.49700
Zn2220     Zn  0.60692686  0.10108011  0.67701230     1.49400
Zn2221     Zn  0.64384092  0.14959036  0.68170762     1.49100
Zn2222     Zn  0.60504314  0.14771551  0.63627128     1.49500
O2223       O  0.62700898  0.12673929  0.65794861    -1.84000
O2224       O  0.64508688  0.07207222  0.63540886    -0.74600
O2225       O  0.61521638  0.10366155  0.71538572    -0.74500
O2226       O  0.68129004  0.14165312  0.68377988    -0.74000
O2227       O  0.61307366  0.06481837  0.66264998    -0.74700
O2228       O  0.68921322  0.11273051  0.65354091    -0.74300
O2229       O  0.63182786  0.14329664  0.71699140    -0.74800
O2230       O  0.61139038  0.18602265  0.64101757    -0.74200
O2231       O  0.56878436  0.10826781  0.67184776    -0.75000
O2232       O  0.63874105  0.18701306  0.67365514    -0.74400
O2233       O  0.56756461  0.14043360  0.64361093    -0.74800
O2234       O  0.61224378  0.13920699  0.59971619    -0.74800
O2235       O  0.65081470  0.11999687  0.60015842    -0.74500
C2236       C  0.62881532  0.05684668  0.64556112     0.77200
C2237       C  0.62356634  0.12308397  0.72806789     0.77700
C2238       C  0.69664094  0.12611898  0.67271556     0.76700
C2239       C  0.62519244  0.19857200  0.65690536     0.77100
C2240       C  0.55616526  0.12409355  0.65792190     0.78200
C2241       C  0.63151893  0.12940469  0.58810724     0.77300
Zn2242     Zn  0.65562491  0.10775699  0.88686555     1.49700
Zn2243     Zn  0.60996280  0.09804773  0.92759336     1.49400
Zn2244     Zn  0.64545249  0.14729757  0.93180223     1.49100
Zn2245     Zn  0.60633919  0.14425977  0.88673968     1.49500
O2246       O  0.62919433  0.12405193  0.90805865    -1.84000
O2247       O  0.64889138  0.06983053  0.88521805    -0.74600
O2248       O  0.61835303  0.10108955  0.96593414    -0.74500
O2249       O  0.68308324  0.13929310  0.93458140    -0.74000
O2250       O  0.61719881  0.06208617  0.91276086    -0.74700
O2251       O  0.69160947  0.11298131  0.90202331    -0.74300
O2252       O  0.63201414  0.14185176  0.96682340    -0.74800
O2253       O  0.61066327  0.18263843  0.89210625    -0.74200
O2254       O  0.57128716  0.10473232  0.92400013    -0.75000
O2255       O  0.63994334  0.18464052  0.92283258    -0.74400
O2256       O  0.56959642  0.13569510  0.89479359    -0.74800
O2257       O  0.61335807  0.13698319  0.84987157    -0.74800
O2258       O  0.65212781  0.11821148  0.84960648    -0.74500
C2259       C  0.63291564  0.05432325  0.89551191     0.77200
C2260       C  0.62464573  0.12149614  0.97827256     0.77700
C2261       C  0.69877723  0.12533116  0.92195287     0.76700
C2262       C  0.62489182  0.19580844  0.90704650     0.77100
C2263       C  0.55830507  0.12033030  0.91011148     0.78200
C2264       C  0.63264733  0.12765795  0.83788757     0.77300
Zn2265     Zn  0.10355442  0.89372959  0.50759301     1.49700
Zn2266     Zn  0.15299039  0.85640098  0.51168151     1.49400
Zn2267     Zn  0.14309973  0.90221217  0.55208376     1.49100
Zn2268     Zn  0.10587724  0.85351578  0.55169651     1.49500
O2269       O  0.12666008  0.87613624  0.53066154    -1.84000
O2270       O  0.11159042  0.88251383  0.97238902    -0.74600
O2271       O  0.18908374  0.86361204  0.52685664    -0.74500
O2272       O  0.13858446  0.93849719  0.53816594    -0.74000
O2273       O  0.15071799  0.86459420  0.97471797    -0.74700
O2274       O  0.10975269  0.93159199  0.50761655    -0.74300
O2275       O  0.18074835  0.89497292  0.55465242    -0.74800
O2276       O  0.11447653  0.85994275  0.58853356    -0.74200
O2277       O  0.14653486  0.81741384  0.51585049    -0.75000
O2278       O  0.13201567  0.89906107  0.58868146    -0.74400
O2279       O  0.11432964  0.81662553  0.54385635    -0.74800
O2280       O  0.06721722  0.85885515  0.54651481    -0.74800
O2281       O  0.06601999  0.88781004  0.51530900    -0.74500
C2282       C  0.13210451  0.87438632  0.96175259     0.77200
C2283       C  0.19638675  0.87902917  0.54457325     0.77700
C2284       C  0.12454762  0.94674085  0.51988154     0.76700
C2285       C  0.12371093  0.87923148  0.60055966     0.77100
C2286       C  0.13064802  0.80483965  0.52985079     0.78200
C2287       C  0.05452040  0.87328735  0.53128312     0.77300
Zn2288     Zn  0.15894776  0.89489136  0.75987402     1.49700
Zn2289     Zn  0.10944135  0.85880542  0.75936651     1.49400
Zn2290     Zn  0.14845422  0.85483455  0.80386645     1.49100
Zn2291     Zn  0.11363914  0.90390870  0.80149894     1.49500
O2292       O  0.13238666  0.87858365  0.78088637    -1.84000
O2293       O  0.15535513  0.88453971  0.72260356    -0.74600
O2294       O  0.11428268  0.82010419  0.76299747    -0.74500
O2295       O  0.18590225  0.86180042  0.80641393    -0.74000
O2296       O  0.11603630  0.86737571  0.72293795    -0.74700
O2297       O  0.19500840  0.88842537  0.77433171    -0.74300
O2298       O  0.14326773  0.81830959  0.79392371    -0.74800
O2299       O  0.12361984  0.89996888  0.83945438    -0.74200
O2300       O  0.07287819  0.86768412  0.76744761    -0.75000
O2301       O  0.13613850  0.85900218  0.83910825    -0.74400
O2302       O  0.07475662  0.89761168  0.79799832    -0.74800
O2303       O  0.12106335  0.94007652  0.78729202    -0.74800
O2304       O  0.15252092  0.93307035  0.75915570    -0.74500
C2305       C  0.13547636  0.87612543  0.71080623     0.77200
C2306       C  0.12898965  0.80705978  0.77764920     0.77700
C2307       C  0.20193956  0.87526074  0.79380005     0.76700
C2308       C  0.13063707  0.87945780  0.85126678     0.77100
C2309       C  0.06183787  0.88305716  0.78296892     0.78200
C2310       C  0.13670461  0.94828590  0.77015715     0.77300
Zn2311     Zn  0.39205771  0.85298762  0.57410536     1.49700
Zn2312     Zn  0.34570451  0.85737918  0.61436495     1.49400
Zn2313     Zn  0.39419725  0.89450868  0.61694338     1.49100
Zn2314     Zn  0.35489132  0.90190943  0.57259409     1.49500
O2315       O  0.37132255  0.87632364  0.59438693    -1.84000
O2316       O  0.38520683  0.81594772  0.58381601    -0.74600
O2317       O  0.34999069  0.86686499  0.65218663    -0.74500
O2318       O  0.43129013  0.89095672  0.60734992    -0.74000
O2319       O  0.35208428  0.81863025  0.61088792    -0.74700
O2320       O  0.43010114  0.85982704  0.57840844    -0.74300
O2321       O  0.38990680  0.88277272  0.65227320    -0.74800
O2322       O  0.35764919  0.93853110  0.58732309    -0.74200
O2323       O  0.30930575  0.86456193  0.60042951    -0.75000
O2324       O  0.38486354  0.93150553  0.61927629    -0.74400
O2325       O  0.31744741  0.89338052  0.56986511    -0.74800
O2326       O  0.36752975  0.89837781  0.53623867    -0.74800
O2327       O  0.38427149  0.85872590  0.53707442    -0.74500
C2328       C  0.36862727  0.80532315  0.59843917     0.77200
C2329       C  0.36990015  0.87520409  0.66414614     0.77700
C2330       C  0.44281079  0.87573119  0.59203759     0.76700
C2331       C  0.37002951  0.94649444  0.60691001     0.77100
C2332       C  0.30193861  0.87853394  0.58164268     0.78200
C2333       C  0.37633079  0.87843432  0.52476197     0.77300
Zn2334     Zn  0.35050668  0.89224899  0.86444295     1.49700
Zn2335     Zn  0.39900696  0.85419634  0.86567433     1.49400
Zn2336     Zn  0.36001181  0.85208429  0.82064757     1.49100
Zn2337     Zn  0.39667307  0.90112806  0.82510782     1.49500
O2338       O  0.37687181  0.87517334  0.84407371    -1.84000
O2339       O  0.35345104  0.88155702  0.90113923    -0.74600
O2340       O  0.39178854  0.81558729  0.86203418    -0.74500
O2341       O  0.32227873  0.85888755  0.81905799    -0.74000
O2342       O  0.39269285  0.86403159  0.90230905    -0.74700
O2343       O  0.31446282  0.88693232  0.85017200    -0.74300
O2344       O  0.36573649  0.81470699  0.82837898    -0.74800
O2345       O  0.38733838  0.89875661  0.78692302    -0.74200
O2346       O  0.43643634  0.86059917  0.85648787    -0.75000
O2347       O  0.37124776  0.85894608  0.78559392    -0.74400
O2348       O  0.43487667  0.89337330  0.82890442    -0.74800
O2349       O  0.39063514  0.93741072  0.84011726    -0.74800
O2350       O  0.35710449  0.93033659  0.86573799    -0.74500
C2351       C  0.37295368  0.87339810  0.91364442     0.77200
C2352       C  0.37860317  0.80307721  0.84557684     0.77700
C2353       C  0.30679565  0.87330090  0.83136176     0.76700
C2354       C  0.37875538  0.87933335  0.77434850     0.77100
C2355       C  0.44764652  0.87687875  0.84191728     0.78200
C2356       C  0.37383826  0.94550250  0.85615651     0.77300
Zn2357     Zn  0.35541095  0.09575079  0.67978044     1.49700
Zn2358     Zn  0.39538244  0.10205877  0.63495794     1.49400
Zn2359     Zn  0.34728609  0.14010138  0.63760914     1.49100
Zn2360     Zn  0.39369249  0.14368204  0.67818029     1.49500
O2361       O  0.37268995  0.12066798  0.65768534    -1.84000
O2362       O  0.35799847  0.05900407  0.66569564    -0.74600
O2363       O  0.38956199  0.11256764  0.59912532    -0.74500
O2364       O  0.31078448  0.13357616  0.65112517    -0.74000
O2365       O  0.38607747  0.06490032  0.63410727    -0.74700
O2366       O  0.31786760  0.10481353  0.68189490    -0.74300
O2367       O  0.35081616  0.13094784  0.59970716    -0.74800
O2368       O  0.38602937  0.18061316  0.66973593    -0.74200
O2369       O  0.43309578  0.10665524  0.64328558    -0.75000
O2370       O  0.35414955  0.17862182  0.64125342    -0.74400
O2371       O  0.43170188  0.13841852  0.67177458    -0.74800
O2372       O  0.38711664  0.13727173  0.71545679    -0.74800
O2373       O  0.36778248  0.09899519  0.71625612    -0.74500
C2374       C  0.37075877  0.05048239  0.64659103     0.77200
C2375       C  0.36991287  0.12135868  0.58742278     0.77700
C2376       C  0.30269966  0.11968737  0.66964539     0.76700
C2377       C  0.37020419  0.19159521  0.65461015     0.77100
C2378       C  0.44442555  0.12287507  0.65774858     0.78200
C2379       C  0.37794716  0.11819013  0.72784192     0.77300
Zn2380     Zn  0.35690744  0.14387397  0.93108769     1.49700
Zn2381     Zn  0.39756338  0.14089579  0.88736237     1.49400
Zn2382     Zn  0.39432307  0.09493207  0.92786231     1.49100
Zn2383     Zn  0.34867830  0.10297605  0.88760502     1.49500
O2384       O  0.37456623  0.12047289  0.90836970    -1.84000
O2385       O  0.36158972  0.18140013  0.92205592    -0.74600
O2386       O  0.43463521  0.13358564  0.89650744    -0.74500
O2387       O  0.38409124  0.09761436  0.96536391    -0.74000
O2388       O  0.39152919  0.17944911  0.89171885    -0.74700
O2389       O  0.36783393  0.13751280  0.96659516    -0.74300
O2390       O  0.43266768  0.10260725  0.92568137    -0.74800
O2391       O  0.35647274  0.06503393  0.88628024    -0.74200
O2392       O  0.39146237  0.13173681  0.85058323    -0.75000
O2393       O  0.38919216  0.05858582  0.91298097    -0.74400
O2394       O  0.35246224  0.11365660  0.85073098    -0.74800
O2395       O  0.31204570  0.10753006  0.90187409    -0.74800
O2396       O  0.31947368  0.13610080  0.93261629    -0.74500
C2397       C  0.37655006  0.19245836  0.90615838     0.77200
C2398       C  0.44578058  0.11820428  0.91203218     0.77700
C2399       C  0.37540564  0.11706241  0.97778073     0.76700
C2400       C  0.37331365  0.05018633  0.89622822     0.77100
C2401       C  0.37215972  0.12216780  0.83871523     0.78200
C2402       C  0.30419278  0.12120584  0.92066266     0.77300
Zn2403     Zn  0.10394608  0.10571231  0.74087617     1.49700
Zn2404     Zn  0.10649179  0.14625694  0.69726723     1.49400
Zn2405     Zn  0.15288113  0.14362711  0.73764009     1.49100
Zn2406     Zn  0.14408482  0.09745617  0.69732564     1.49500
O2407       O  0.12719303  0.12357761  0.71834365    -1.84000
O2408       O  0.06664723  0.11098411  0.73202671    -0.74600
O2409       O  0.11532620  0.18320596  0.70384732    -0.74500
O2410       O  0.14915845  0.13512643  0.77568569    -0.74000
O2411       O  0.06793002  0.14137399  0.70221230    -0.74700
O2412       O  0.11048207  0.11637731  0.77637343    -0.74300
O2413       O  0.14687457  0.18250144  0.73255111    -0.74800
O2414       O  0.18151520  0.10611662  0.69427611    -0.74200
O2415       O  0.11420731  0.13883445  0.66080686    -0.75000
O2416       O  0.18931204  0.13583311  0.72407402    -0.74400
O2417       O  0.13174916  0.09964170  0.66088162    -0.74800
O2418       O  0.14114302  0.06110625  0.71266378    -0.74800
O2419       O  0.11107810  0.06798170  0.74198722    -0.74500
C2420       C  0.05524106  0.12589694  0.71636790     0.77200
C2421       C  0.13152743  0.19498014  0.71791536     0.77700
C2422       C  0.13012925  0.12534855  0.78795958     0.76700
C2423       C  0.19694086  0.12123550  0.70584717     0.77100
C2424       C  0.12283512  0.11921197  0.64894240     0.78200
C2425       C  0.12670555  0.05288727  0.73071954     0.77300
Zn2426     Zn  0.10555261  0.14082001  0.98931382     1.49700
Zn2427     Zn  0.10795602  0.09549581  0.94803330     1.49400
Zn2428     Zn  0.14675734  0.14310692  0.94535341     1.49100
Zn2429     Zn  0.15354178  0.10293872  0.98941061     1.49500
O2430       O  0.12824828  0.12033745  0.96792386    -1.84000
O2431       O  0.06847523  0.13409477  0.98096988    -0.74600
O2432       O  0.11639733  0.09900822  0.91005769    -0.74500
O2433       O  0.14042222  0.18018380  0.95340103    -0.74000
O2434       O  0.06975534  0.10297983  0.95179368    -0.74700
O2435       O  0.11163237  0.17888441  0.98475515    -0.74300
O2436       O  0.13757419  0.13649834  0.90947243    -0.74800
O2437       O  0.19039668  0.10673729  0.97596803    -0.74200
O2438       O  0.11361531  0.05908979  0.96196936    -0.75000
O2439       O  0.18439622  0.13616250  0.94567244    -0.74400
O2440       O  0.14491255  0.06555484  0.99034448    -0.74800
O2441       O  0.15140291  0.11529668  0.52672478    -0.74800
O2442       O  0.11228031  0.13289373  0.52666827    -0.74500
C2443       C  0.05706084  0.11866437  0.96576251     0.77200
C2444       C  0.12720609  0.11756227  0.89798348     0.77700
C2445       C  0.12592758  0.19159304  0.96948651     0.76700
C2446       C  0.19904213  0.12093886  0.95796563     0.77100
C2447       C  0.12867144  0.05073976  0.97947783     0.78200
C2448       C  0.13168106  0.12378076  0.53866326     0.77300
Zn2449     Zn  0.85314370  0.40383416  0.69816865     1.49700
Zn2450     Zn  0.89384518  0.39473850  0.74261830     1.49400
Zn2451     Zn  0.84415836  0.35846840  0.73944365     1.49100
Zn2452     Zn  0.89045107  0.35500552  0.69871105     1.49500
O2453       O  0.86994575  0.37794807  0.71972012    -1.84000
O2454       O  0.85884719  0.44056146  0.71274164    -0.74600
O2455       O  0.88721294  0.38460373  0.77851038    -0.74500
O2456       O  0.80763170  0.36529513  0.72522409    -0.74000
O2457       O  0.88771639  0.43225338  0.74293929    -0.74700
O2458       O  0.81507227  0.39594484  0.69627944    -0.74300
O2459       O  0.84815170  0.36642855  0.77782459    -0.74800
O2460       O  0.88436473  0.31825009  0.70856483    -0.74200
O2461       O  0.93116026  0.38924987  0.73366232    -0.75000
O2462       O  0.85101598  0.32007444  0.73541268    -0.74400
O2463       O  0.92862018  0.36165701  0.70147619    -0.74800
O2464       O  0.88150427  0.36004853  0.66209566    -0.74800
O2465       O  0.86409225  0.39943085  0.66104543    -0.74500
C2466       C  0.87334265  0.44811674  0.73113315     0.77200
C2467       C  0.86755284  0.37557990  0.79003374     0.77700
C2468       C  0.79984851  0.38009885  0.70721872     0.76700
C2469       C  0.86794712  0.30725072  0.72302935     0.77100
C2470       C  0.94196887  0.37562119  0.71647862     0.78200
C2471       C  0.87284863  0.37936310  0.64972286     0.77300
Zn2472     Zn  0.86016828  0.40547170  0.94905843     1.49700
Zn2473     Zn  0.89852750  0.39459926  0.99456583     1.49400
Zn2474     Zn  0.84926007  0.35912772  0.98831064     1.49100
Zn2475     Zn  0.89557009  0.35601889  0.94839187     1.49500
O2476       O  0.87571480  0.37870473  0.97011345    -1.84000
O2477       O  0.86505601  0.44128514  0.96464602    -0.74600
O2478       O  0.89206294  0.37880202  0.52932499    -0.74500
O2479       O  0.81415273  0.36611421  0.97239520    -0.74000
O2480       O  0.89178222  0.43264895  0.99660497    -0.74700
O2481       O  0.82222798  0.39914600  0.94666428    -0.74300
O2482       O  0.85130097  0.36527154  0.52653405    -0.74800
O2483       O  0.88942428  0.31895548  0.95812557    -0.74200
O2484       O  0.93598200  0.38844062  0.98608029    -0.75000
O2485       O  0.85652043  0.32050694  0.98539937    -0.74400
O2486       O  0.93390218  0.36316037  0.95184798    -0.74800
O2487       O  0.88493202  0.36123993  0.91173982    -0.74800
O2488       O  0.87127865  0.40205771  0.91199250    -0.74500
C2489       C  0.87770308  0.44853489  0.98436266     0.77200
C2490       C  0.87096173  0.37189100  0.53977694     0.77700
C2491       C  0.80665718  0.38259159  0.95579748     0.76700
C2492       C  0.87338756  0.30769572  0.97286484     0.77100
C2493       C  0.94701528  0.37595100  0.96813302     0.78200
C2494       C  0.87725522  0.38139657  0.89997294     0.77300
Zn2495     Zn  0.85131945  0.64442876  0.55673551     1.49700
Zn2496     Zn  0.88925873  0.59614962  0.55272762     1.49400
Zn2497     Zn  0.84339554  0.60500931  0.51189528     1.49100
Zn2498     Zn  0.89195494  0.64247475  0.51260671     1.49500
O2499       O  0.86912595  0.62171728  0.53360609    -1.84000
O2500       O  0.86134103  0.63727011  0.59255182    -0.74600
O2501       O  0.88250374  0.56011120  0.53855243    -0.74500
O2502       O  0.80640972  0.60958223  0.52528991    -0.74000
O2503       O  0.88178938  0.59942040  0.59097425    -0.74700
O2504       O  0.81366892  0.63770907  0.55644600    -0.74300
O2505       O  0.85157180  0.56721925  0.50997136    -0.74800
O2506       O  0.88911545  0.63251029  0.97555726    -0.74200
O2507       O  0.92760247  0.60251778  0.54790991    -0.75000
O2508       O  0.84806893  0.61933014  0.97516183    -0.74400
O2509       O  0.92894178  0.63613764  0.52147463    -0.74800
O2510       O  0.88511217  0.68066311  0.51654337    -0.74800
O2511       O  0.85714205  0.68169214  0.54858109    -0.74500
C2512       C  0.87167314  0.61799573  0.60361067     0.77200
C2513       C  0.86762907  0.55209804  0.52073387     0.77700
C2514       C  0.79839404  0.62326941  0.54399038     0.76700
C2515       C  0.86894536  0.62531710  0.96353951     0.77100
C2516       C  0.94021955  0.61924371  0.53513110     0.78200
C2517       C  0.87097754  0.69328503  0.53209097     0.77300
Zn2518     Zn  0.85683363  0.64663166  0.80640073     1.49700
Zn2519     Zn  0.89366357  0.59732712  0.80286920     1.49400
Zn2520     Zn  0.84744788  0.60617050  0.76289126     1.49100
Zn2521     Zn  0.89636109  0.64324761  0.76145839     1.49500
O2522       O  0.87389529  0.62312071  0.78342022    -1.84000
O2523       O  0.86791766  0.64016933  0.84200275    -0.74600
O2524       O  0.88659979  0.56090209  0.78882832    -0.74500
O2525       O  0.81138821  0.61065424  0.77759974    -0.74000
O2526       O  0.88571758  0.60097286  0.84117222    -0.74700
O2527       O  0.81934340  0.63953408  0.80789189    -0.74300
O2528       O  0.85501116  0.56851138  0.76116241    -0.74800
O2529       O  0.88931457  0.63382950  0.72477920    -0.74200
O2530       O  0.93206131  0.60361120  0.79797518    -0.75000
O2531       O  0.84970824  0.61696705  0.72603460    -0.74400
O2532       O  0.93348908  0.63483018  0.76896391    -0.74800
O2533       O  0.89079037  0.68209629  0.76602634    -0.74800
O2534       O  0.86162709  0.68398961  0.79713373    -0.74500
C2535       C  0.87664805  0.62033896  0.85348400     0.77200
C2536       C  0.87097753  0.55306893  0.77153895     0.77700
C2537       C  0.80387573  0.62458236  0.79628456     0.76700
C2538       C  0.86934343  0.62489762  0.71357607     0.77100
C2539       C  0.94491538  0.61884239  0.78366631     0.78200
C2540       C  0.87598221  0.69507188  0.78073409     0.77300
Zn2541     Zn  0.60107992  0.64938384  0.61485706     1.49700
Zn2542     Zn  0.63834616  0.64926295  0.56770517     1.49400
Zn2543     Zn  0.64922333  0.61091690  0.61350075     1.49100
Zn2544     Zn  0.60202667  0.60112188  0.57537573     1.49500
O2545       O  0.62238512  0.62749391  0.59313004    -1.84000
O2546       O  0.60880924  0.68779301  0.60952091    -0.74600
O2547       O  0.67576993  0.64026494  0.56364121    -0.74500
O2548       O  0.64629948  0.62075580  0.65081461    -0.74000
O2549       O  0.63481148  0.68709534  0.57575726    -0.74700
O2550       O  0.60807098  0.64059759  0.65169040    -0.74300
O2551       O  0.68472297  0.61600980  0.59755362    -0.74800
O2552       O  0.60928320  0.56529586  0.59058025    -0.74200
O2553       O  0.62351456  0.64275625  0.53346355    -0.75000
O2554       O  0.64311527  0.57285709  0.61545378    -0.74400
O2555       O  0.60945232  0.60223516  0.53668603    -0.74800
O2556       O  0.56385708  0.60879449  0.58094944    -0.74800
O2557       O  0.56325961  0.64216032  0.60779924    -0.74500
C2558       C  0.62245314  0.69953787  0.59283729     0.77200
C2559       C  0.69163424  0.62703093  0.57680175     0.77700
C2560       C  0.62702864  0.62987943  0.66308510     0.76700
C2561       C  0.62635416  0.55740812  0.60644422     0.77100
C2562       C  0.61591369  0.62182742  0.52323164     0.78200
C2563       C  0.55143664  0.62529887  0.59435379     0.77300
Zn2564     Zn  0.64518130  0.64749869  0.81983835     1.49700
Zn2565     Zn  0.60915579  0.59875982  0.82416937     1.49400
Zn2566     Zn  0.65463811  0.60854615  0.86513473     1.49100
Zn2567     Zn  0.60601955  0.64583174  0.86455728     1.49500
O2568       O  0.62848320  0.62478428  0.84363583    -1.84000
O2569       O  0.63112173  0.64265707  0.78492634    -0.74600
O2570       O  0.61624488  0.56265006  0.83910689    -0.74500
O2571       O  0.69083928  0.61422790  0.85090169    -0.74000
O2572       O  0.61656234  0.60220917  0.78551592    -0.74700
O2573       O  0.68210310  0.63835696  0.81684753    -0.74300
O2574       O  0.64840863  0.57063194  0.86616814    -0.74800
O2575       O  0.61178007  0.63757459  0.90136108    -0.74200
O2576       O  0.57079547  0.60535914  0.82862602    -0.75000
O2577       O  0.65006708  0.61793808  0.90245440    -0.74400
O2578       O  0.56917430  0.63767961  0.85671703    -0.74800
O2579       O  0.61233456  0.68416121  0.85968014    -0.74800
O2580       O  0.64267564  0.68493105  0.82969002    -0.74500
C2581       C  0.62284459  0.62272186  0.77331155     0.77200
C2582       C  0.63230106  0.55509877  0.85614452     0.77700
C2583       C  0.69786218  0.62542009  0.83028864     0.76700
C2584       C  0.63025253  0.62721264  0.91372249     0.77100
C2585       C  0.55803322  0.62116205  0.84244118     0.78200
C2586       C  0.62801148  0.69654644  0.84546120     0.77300
Zn2587     Zn  0.64175355  0.40770880  0.67832133     1.49700
Zn2588     Zn  0.60305263  0.35992183  0.68045341     1.49400
Zn2589     Zn  0.60093603  0.39866115  0.63469310     1.49100
Zn2590     Zn  0.64890460  0.36031955  0.63919084     1.49500
O2591       O  0.62388920  0.38145572  0.65817963    -1.84000
O2592       O  0.63137179  0.40555703  0.71559578    -0.74600
O2593       O  0.56462608  0.36646186  0.67587134    -0.74500
O2594       O  0.60603873  0.43678670  0.63488645    -0.74000
O2595       O  0.61280533  0.36691859  0.71668696    -0.74700
O2596       O  0.63724479  0.44413210  0.66300574    -0.74300
O2597       O  0.56373021  0.39101972  0.64107942    -0.74800
O2598       O  0.64708843  0.36895625  0.60108822    -0.74200
O2599       O  0.60980557  0.32227768  0.67357531    -0.75000
O2600       O  0.60919280  0.38906472  0.59927884    -0.74400
O2601       O  0.63994304  0.32230224  0.64321851    -0.74800
O2602       O  0.68538542  0.36528392  0.65400616    -0.74800
O2603       O  0.67940991  0.39848169  0.68039107    -0.74500
C2604       C  0.62304812  0.38609980  0.72810416     0.77200
C2605       C  0.55217590  0.37859422  0.65862226     0.77700
C2606       C  0.62160052  0.45221264  0.64583016     0.76700
C2607       C  0.62877647  0.37932885  0.58827258     0.77100
C2608       C  0.62466192  0.31028978  0.65820960     0.78200
C2609       C  0.69386272  0.38103859  0.67087288     0.77300
Zn2610     Zn  0.64646167  0.35714411  0.93153216     1.49700
Zn2611     Zn  0.65656813  0.39745735  0.88731028     1.49400
Zn2612     Zn  0.60800745  0.35948927  0.88656189     1.49100
Zn2613     Zn  0.60972759  0.40639865  0.92679370     1.49500
O2614       O  0.63006160  0.38049852  0.90796908    -1.84000
O2615       O  0.68424832  0.36221125  0.93154332    -0.74600
O2616       O  0.65283068  0.38761766  0.84991837    -0.74500
O2617       O  0.61233358  0.32096263  0.89191452    -0.74000
O2618       O  0.69275472  0.39136874  0.90185059    -0.74700
O2619       O  0.63898858  0.31987164  0.92486791    -0.74300
O2620       O  0.61496439  0.36722120  0.85000716    -0.74800
O2621       O  0.57135308  0.39926872  0.92250570    -0.74200
O2622       O  0.65016309  0.43561381  0.88683796    -0.75000
O2623       O  0.57128688  0.36759666  0.89394233    -0.74400
O2624       O  0.61653018  0.44262933  0.91239066    -0.74800
O2625       O  0.61774340  0.40377409  0.96503863    -0.74800
O2626       O  0.63664215  0.36528992  0.96703079    -0.74500
C2627       C  0.70018354  0.37675118  0.92011272     0.77200
C2628       C  0.63376084  0.37749357  0.83807588     0.77700
C2629       C  0.62511844  0.30824244  0.90846209     0.76700
C2630       C  0.55921528  0.38315986  0.90850110     0.77100
C2631       C  0.63350103  0.45076998  0.89657556     0.78200
C2632       C  0.62727039  0.38509841  0.97797494     0.77300
Zn2633     Zn  0.10286880  0.64359880  0.55080192     1.49700
Zn2634     Zn  0.13813848  0.59334565  0.55049063     1.49400
Zn2635     Zn  0.09983173  0.60309459  0.50611514     1.49100
Zn2636     Zn  0.14917959  0.63987066  0.51129642     1.49500
O2637       O  0.12269900  0.62027832  0.52960016    -1.84000
O2638       O  0.11146171  0.63633406  0.58750489    -0.74600
O2639       O  0.13361689  0.55739442  0.53559549    -0.74500
O2640       O  0.06270941  0.60818207  0.51523123    -0.74000
O2641       O  0.12643262  0.59607510  0.58693680    -0.74700
O2642       O  0.06449751  0.63775674  0.54595797    -0.74300
O2643       O  0.10660492  0.56500405  0.50363408    -0.74800
O2644       O  0.14518052  0.63190795  0.97308071    -0.74200
O2645       O  0.17582904  0.59976377  0.55346989    -0.75000
O2646       O  0.10526543  0.61584096  0.97162896    -0.74400
O2647       O  0.18461978  0.63125216  0.52612986    -0.74800
O2648       O  0.14412428  0.67860580  0.51587816    -0.74800
O2649       O  0.11140308  0.68103050  0.54312126    -0.74500
C2650       C  0.11950434  0.61622209  0.59914060     0.77200
C2651       C  0.12077388  0.54955849  0.51629991     0.77700
C2652       C  0.05158144  0.62283650  0.53135988     0.76700
C2653       C  0.12539152  0.62434830  0.96041666     0.77100
C2654       C  0.19178435  0.61537315  0.54347009     0.78200
C2655       C  0.12831997  0.69200350  0.52907170     0.77300
Zn2656     Zn  0.10896125  0.59747167  0.79861541     1.49700
Zn2657     Zn  0.15487344  0.60686294  0.75757468     1.49400
Zn2658     Zn  0.10572473  0.64358327  0.75837232     1.49100
Zn2659     Zn  0.14601737  0.64639936  0.80239395     1.49500
O2660       O  0.12878908  0.62317285  0.77928663    -1.84000
O2661       O  0.11705769  0.56119824  0.78510095    -0.74600
O2662       O  0.15005491  0.61700557  0.72021192    -0.74500
O2663       O  0.06891879  0.63603441  0.76653777    -0.74000
O2664       O  0.14786183  0.56899632  0.75646108    -0.74700
O2665       O  0.07025470  0.60323066  0.79366059    -0.74300
O2666       O  0.11095460  0.63450208  0.72203266    -0.74800
O2667       O  0.13992121  0.68343566  0.79344369    -0.74200
O2668       O  0.19158191  0.61194028  0.77192706    -0.75000
O2669       O  0.11144993  0.68195199  0.76195209    -0.74400
O2670       O  0.18388382  0.63958463  0.80332694    -0.74800
O2671       O  0.13484088  0.64032060  0.83808637    -0.74800
O2672       O  0.11621105  0.60167545  0.83683695    -0.74500
C2673       C  0.13245396  0.55348405  0.76755655     0.77200
C2674       C  0.12964638  0.62538124  0.70917796     0.77700
C2675       C  0.05743683  0.61937980  0.78026552     0.76700
C2676       C  0.12574990  0.69484385  0.77706585     0.77100
C2677       C  0.19946374  0.62525984  0.79098280     0.78200
C2678       C  0.12516118  0.62088003  0.84943183     0.77300
Zn2679     Zn  0.10489853  0.35532801  0.69453397     1.49700
Zn2680     Zn  0.14143642  0.40473752  0.69390210     1.49400
Zn2681     Zn  0.10254839  0.39603358  0.73868515     1.49100
Zn2682     Zn  0.15101769  0.35938773  0.73475021     1.49500
O2683       O  0.12520014  0.37858459  0.71534066    -1.84000
O2684       O  0.11399162  0.36134571  0.65790656    -0.74600
O2685       O  0.13743804  0.44119301  0.70845228    -0.74500
O2686       O  0.06545969  0.39180502  0.72934220    -0.74000
O2687       O  0.13092328  0.40077429  0.65688117    -0.74700
O2688       O  0.06640928  0.36197578  0.69890300    -0.74300
O2689       O  0.11073536  0.43341637  0.74063361    -0.74800
O2690       O  0.14810505  0.36821125  0.77251677    -0.74200
O2691       O  0.17898770  0.39734779  0.69213075    -0.75000
O2692       O  0.10823771  0.38425698  0.77412442    -0.74400
O2693       O  0.18685311  0.36646262  0.72054393    -0.74800
O2694       O  0.14522383  0.32092620  0.73091830    -0.74800
O2695       O  0.11330323  0.31805527  0.70271267    -0.74500
C2696       C  0.12305515  0.38043044  0.64545012     0.77200
C2697       C  0.12492986  0.44887686  0.72807740     0.77700
C2698       C  0.05385870  0.37745225  0.71329725     0.76700
C2699       C  0.12872604  0.37663114  0.78518122     0.77100
C2700       C  0.19440566  0.38160859  0.70280083     0.78200
C2701       C  0.12987990  0.30739539  0.71737876     0.77300
Zn2702     Zn  0.14788927  0.35143589  0.94301855     1.49700
Zn2703     Zn  0.10941527  0.39903415  0.94582016     1.49400
Zn2704     Zn  0.10806332  0.35442411  0.98776125     1.49100
Zn2705     Zn  0.15607115  0.39286894  0.98595393     1.49500
O2706       O  0.13017549  0.37468611  0.96569941    -1.84000
O2707       O  0.13782729  0.35780060  0.90726101    -0.74600
O2708       O  0.07109807  0.39105317  0.94988097    -0.74500
O2709       O  0.11338254  0.31616190  0.98316656    -0.74000
O2710       O  0.11858837  0.39613355  0.90801331    -0.74700
O2711       O  0.14173188  0.31452323  0.95148420    -0.74300
O2712       O  0.07075857  0.36243278  0.98159186    -0.74800
O2713       O  0.15305287  0.38245413  0.52324927    -0.74200
O2714       O  0.11466806  0.43550871  0.95968843    -0.75000
O2715       O  0.11489051  0.36273112  0.52387093    -0.74400
O2716       O  0.14713067  0.43034990  0.98694961    -0.74800
O2717       O  0.19232158  0.38877894  0.97107675    -0.74800
O2718       O  0.18571520  0.35776427  0.94269970    -0.74500
C2719       C  0.12868600  0.37731546  0.89569730     0.77200
C2720       C  0.05892062  0.37686551  0.96576888     0.77700
C2721       C  0.12768874  0.30329001  0.96800555     0.76700
C2722       C  0.13399055  0.37286281  0.53546601     0.77100
C2723       C  0.13003755  0.44457176  0.97656434     0.78200
C2724       C  0.20075194  0.37367689  0.95367076     0.77300
Zn2725     Zn  0.39214904  0.35410105  0.63265259     1.49700
Zn2726     Zn  0.35261823  0.35204923  0.67693157     1.49400
Zn2727     Zn  0.38978592  0.40049745  0.67348054     1.49100
Zn2728     Zn  0.34392518  0.39283017  0.63322265     1.49500
O2729       O  0.36989874  0.37518768  0.65384734    -1.84000
O2730       O  0.38644866  0.31554704  0.63781959    -0.74600
O2731       O  0.36480903  0.35698424  0.71229003    -0.74500
O2732       O  0.42793678  0.39328380  0.66909984    -0.74000
O2733       O  0.35606020  0.31485868  0.66768891    -0.74700
O2734       O  0.42932435  0.36220298  0.63975027    -0.74300
O2735       O  0.38145768  0.39654585  0.71156717    -0.74800
O2736       O  0.35135478  0.43067814  0.63265892    -0.74200
O2737       O  0.31559162  0.36032498  0.67906708    -0.75000
O2738       O  0.38370792  0.43726308  0.65978066    -0.74400
O2739       O  0.30770589  0.38832688  0.64800373    -0.74800
O2740       O  0.34739083  0.38306090  0.59592734    -0.74800
O2741       O  0.38508544  0.36252568  0.59616694    -0.74500
C2742       C  0.37081121  0.30317745  0.65212151     0.77200
C2743       C  0.37331380  0.37680177  0.72389556     0.77700
C2744       C  0.44064606  0.37800098  0.65468013     0.76700
C2745       C  0.36774661  0.44564582  0.64308544     0.77100
C2746       C  0.30019457  0.37515207  0.66725860     0.78200
C2747       C  0.36657261  0.37320681  0.58407360     0.77300
Zn2748     Zn  0.39759523  0.35394128  0.92688099     1.49700
Zn2749     Zn  0.39939269  0.39252568  0.88100873     1.49400
Zn2750     Zn  0.35120377  0.35485813  0.88617869     1.49100
Zn2751     Zn  0.35907087  0.40199859  0.92514536     1.49500
O2752       O  0.37657710  0.37562718  0.90486245    -1.84000
O2753       O  0.43572545  0.36189434  0.92319180    -0.74600
O2754       O  0.39142222  0.38241710  0.84552746    -0.74500
O2755       O  0.35838361  0.31678541  0.89180181    -0.74000
O2756       O  0.43655538  0.38642693  0.88834562    -0.74700
O2757       O  0.39137106  0.31613144  0.91908916    -0.74300
O2758       O  0.35372222  0.36204854  0.84778765    -0.74800
O2759       O  0.32117793  0.39554446  0.92532889    -0.74200
O2760       O  0.39435967  0.43043850  0.88125592    -0.75000
O2761       O  0.31497460  0.36188055  0.89983500    -0.74400
O2762       O  0.36504360  0.43808756  0.91131968    -0.74800
O2763       O  0.36815497  0.39874279  0.96243108    -0.74800
O2764       O  0.38835141  0.36075466  0.96335404    -0.74500
C2765       C  0.44802558  0.37470751  0.90636995     0.77200
C2766       C  0.37189769  0.37230106  0.83471685     0.77700
C2767       C  0.37484459  0.30439442  0.90519046     0.76700
C2768       C  0.30632208  0.37866424  0.91555484     0.77100
C2769       C  0.37992705  0.44590476  0.89351616     0.78200
C2770       C  0.37782301  0.37980206  0.97472814     0.77300
Zn2771     Zn  0.34085469  0.60335198  0.61561530     1.49700
Zn2772     Zn  0.38936131  0.64217882  0.61707408     1.49400
Zn2773     Zn  0.38782915  0.59683989  0.57594592     1.49100
Zn2774     Zn  0.34958505  0.64520284  0.57290206     1.49500
O2775       O  0.36707466  0.62157781  0.59546375    -1.84000
O2776       O  0.34449808  0.61240550  0.65308876    -0.74600
O2777       O  0.42686942  0.63562250  0.60945151    -0.74500
O2778       O  0.38228994  0.56001908  0.58972399    -0.74000
O2779       O  0.38249018  0.63236993  0.65311551    -0.74700
O2780       O  0.34826911  0.56541118  0.61515710    -0.74300
O2781       O  0.42622113  0.60508789  0.57977096    -0.74800
O2782       O  0.35995288  0.63903377  0.53703763    -0.74200
O2783       O  0.38303204  0.68069788  0.61349788    -0.75000
O2784       O  0.37819074  0.60009601  0.53810722    -0.74400
O2785       O  0.35414272  0.68255374  0.58224544    -0.74800
O2786       O  0.31220323  0.63797037  0.57206845    -0.74800
O2787       O  0.30423623  0.60848626  0.60153963    -0.74500
C2788       C  0.36386091  0.62172192  0.66505250     0.77200
C2789       C  0.43873458  0.62067024  0.59406356     0.77700
C2790       C  0.36545706  0.55097771  0.60521794     0.76700
C2791       C  0.36837990  0.61902091  0.52567176     0.77100
C2792       C  0.36823315  0.69365861  0.59886104     0.78200
C2793       C  0.29653868  0.62308263  0.58338665     0.77300
Zn2794     Zn  0.34967514  0.64099733  0.86400070     1.49700
Zn2795     Zn  0.39805210  0.60336433  0.86770787     1.49400
Zn2796     Zn  0.35659072  0.59429241  0.82452165     1.49100
Zn2797     Zn  0.39534615  0.64182796  0.82255918     1.49500
O2798       O  0.37462333  0.62031953  0.84467621    -1.84000
O2799       O  0.35154828  0.63120810  0.90197857    -0.74600
O2800       O  0.39301303  0.56550086  0.86722437    -0.74500
O2801       O  0.31883714  0.60226291  0.82326666    -0.74000
O2802       O  0.39028177  0.61282845  0.90330309    -0.74700
O2803       O  0.31324588  0.63594108  0.84880765    -0.74300
O2804       O  0.36156930  0.55830323  0.83917941    -0.74800
O2805       O  0.38520401  0.63537970  0.78655856    -0.74200
O2806       O  0.43521598  0.60996870  0.86028974    -0.75000
O2807       O  0.36665848  0.59667313  0.78734572    -0.74400
O2808       O  0.43371892  0.63429235  0.82548087    -0.74800
O2809       O  0.38940053  0.67930992  0.83065188    -0.74800
O2810       O  0.35906077  0.67918106  0.86085739    -0.74500
C2811       C  0.37029699  0.62130076  0.91459893     0.77200
C2812       C  0.37731497  0.55033349  0.85618832     0.77700
C2813       C  0.30432692  0.61974767  0.83256807     0.76700
C2814       C  0.37548551  0.61604913  0.77506530     0.77100
C2815       C  0.44650201  0.62179114  0.84218560     0.78200
C2816       C  0.37484583  0.69124696  0.84637603     0.77300
C2817       C  0.38689262  0.60414127  0.98361181    -0.26200
C2818       C  0.36669612  0.61600023  0.99689771    -0.14300
C2819       C  0.34679702  0.62858080  0.98309748     0.36300
C2820       C  0.34825892  0.62998420  0.95629297    -0.25700
C2821       C  0.36908958  0.61899369  0.94293656    -0.14900
C2822       C  0.38842635  0.60559850  0.95695463     0.37400
N2823       N  0.40991924  0.59355435  0.94440066    -0.89100
H2824       H  0.40216996  0.59439553  0.99402785     0.18500
H2825       H  0.33312223  0.63988752  0.94585671     0.18500
N2826       N  0.32515963  0.63983704  0.99633148    -0.88200
H2827       H  0.40985877  0.57389739  0.94903758     0.35900
H2828       H  0.42694548  0.60169652  0.95157705     0.41000
H2829       H  0.31763523  0.63700476  0.50616080     0.40600
H2830       H  0.31236534  0.64847991  0.98342960     0.35500
C2831       C  0.38658275  0.63262517  0.70530403    -0.26200
C2832       C  0.36574524  0.61995633  0.69336695    -0.14300
C2833       C  0.34869676  0.60507453  0.70871074     0.36300
C2834       C  0.35271585  0.60366608  0.73513242    -0.25700
C2835       C  0.37331887  0.61675059  0.74691155    -0.14900
C2836       C  0.39056768  0.63122307  0.73157560     0.37400
N2837       N  0.41276412  0.64419879  0.74182556    -0.89100
H2838       H  0.40020426  0.64386601  0.69416796     0.18500
H2839       H  0.33926177  0.59255591  0.74660784     0.18500
N2840       N  0.32732648  0.59097336  0.69827922    -0.88200
H2841       H  0.42371187  0.63098125  0.75238684     0.35900
H2842       H  0.40672036  0.65931653  0.75363316     0.41000
H2843       H  0.33430456  0.57763907  0.68493562     0.40600
H2844       H  0.31473969  0.60393468  0.68934093     0.35500
C2845       C  0.35587756  0.48590008  0.88304623    -0.26200
C2846       C  0.37968814  0.47319250  0.88560106    -0.14300
C2847       C  0.40265093  0.48576835  0.87797423     0.36300
C2848       C  0.40121775  0.51071065  0.86758172    -0.25700
C2849       C  0.37733497  0.52316210  0.86441353    -0.14900
C2850       C  0.35445434  0.51064316  0.87241425     0.37400
N2851       N  0.32965965  0.52286461  0.87070265    -0.89100
H2852       H  0.33817598  0.47626299  0.88871915     0.18500
H2853       H  0.41883294  0.52059283  0.86204857     0.18500
N2854       N  0.42729778  0.47325496  0.88103615    -0.88200
H2855       H  0.32575670  0.52679181  0.85149407     0.35900
H2856       H  0.33035117  0.54031377  0.88077265     0.41000
H2857       H  0.43040437  0.47071632  0.90062814     0.40600
H2858       H  0.44222805  0.48511205  0.87439461     0.35500
C2859       C  0.35739906  0.35777105  0.76470985    -0.26200
C2860       C  0.37284617  0.37641838  0.75229686    -0.14300
C2861       C  0.38720189  0.39399745  0.76721304     0.36300
C2862       C  0.38587219  0.39242805  0.79395254    -0.25700
C2863       C  0.37077575  0.37355120  0.80637518    -0.14900
C2864       C  0.35607366  0.35620502  0.79149678     0.37400
N2865       N  0.34042296  0.33665537  0.80342158    -0.89100
H2866       H  0.34604387  0.34433875  0.75346358     0.18500
H2867       H  0.39702112  0.40603352  0.80519853     0.18500
N2868       N  0.40340647  0.41311654  0.75532950    -0.88200
H2869       H  0.33241041  0.32435219  0.78967690     0.35900
H2870       H  0.32482053  0.34598390  0.81216430     0.41000
H2871       H  0.41844670  0.40334525  0.74609383     0.40600
H2872       H  0.41206734  0.42496253  0.76908048     0.35500
C2873       C  0.39120735  0.36576830  0.54395088    -0.26200
C2874       C  0.36847836  0.37493087  0.55573121    -0.14300
C2875       C  0.34930700  0.38688119  0.54039987     0.36300
C2876       C  0.35334067  0.38912226  0.51390671    -0.25700
C2877       C  0.37582421  0.37942561  0.50234153    -0.14900
C2878       C  0.39514285  0.36802318  0.51756494     0.37400
N2879       N  0.41884094  0.35903742  0.50621359    -0.89100
H2880       H  0.40631461  0.35701655  0.55537859     0.18500
H2881       H  0.33843023  0.39771395  0.50208163     0.18500
N2882       N  0.32583427  0.39663406  0.55154776    -0.88200
H2883       H  0.43104242  0.35106411  0.52006263     0.35900
H2884       H  0.42842176  0.37521719  0.99933847     0.41000
H2885       H  0.31518661  0.38074246  0.55799001     0.40600
H2886       H  0.31441694  0.40575419  0.53773371     0.35500
C2887       C  0.34426675  0.48475340  0.62850217    -0.26200
C2888       C  0.36800409  0.47307057  0.63459957    -0.14300
C2889       C  0.39115380  0.48675303  0.62944681     0.36300
C2890       C  0.38999692  0.51161969  0.61870419    -0.25700
C2891       C  0.36617874  0.52343329  0.61316081    -0.14900
C2892       C  0.34307815  0.50967417  0.61789437     0.37400
N2893       N  0.31846201  0.52097410  0.61165547    -0.89100
H2894       H  0.32645970  0.47425293  0.63188910     0.18500
H2895       H  0.40783910  0.52204884  0.61529363     0.18500
N2896       N  0.41607912  0.47569562  0.63423244    -0.88200
H2897       H  0.30336594  0.50842212  0.61641449     0.35900
H2898       H  0.31781324  0.52334682  0.59181462     0.41000
H2899       H  0.41747122  0.45824890  0.62423338     0.40600
H2900       H  0.41773211  0.47192963  0.65378787     0.35500
C2901       C  0.27206733  0.39156665  0.94657356    -0.26200
C2902       C  0.27888430  0.37800836  0.92417891    -0.14300
C2903       C  0.25986610  0.36305406  0.91171180     0.36300
C2904       C  0.23488174  0.36160805  0.92216469    -0.25700
C2905       C  0.22808724  0.37499126  0.94469004    -0.14900
C2906       C  0.24707286  0.39012792  0.95704126     0.37400
N2907       N  0.24114779  0.40383202  0.98023799    -0.89100
H2908       H  0.28652687  0.40293053  0.95648185     0.18500
H2909       H  0.22047646  0.35019131  0.91224141     0.18500
N2910       N  0.26578777  0.34952376  0.88841114    -0.88200
H2911       H  0.25780675  0.40997183  0.48840028     0.35900
H2912       H  0.23744069  0.38596107  0.49581282     0.41000
H2913       H  0.26962315  0.36340675  0.87439259     0.40600
H2914       H  0.24978296  0.33900489  0.88201031     0.35500
C2915       C  0.14501110  0.36019326  0.82672745    -0.26200
C2916       C  0.12979280  0.37796840  0.81335554    -0.14300
C2917       C  0.11554387  0.39678811  0.82708505     0.36300
C2918       C  0.11560531  0.39631438  0.85390343    -0.25700
C2919       C  0.12999892  0.37782723  0.86736900    -0.14900
C2920       C  0.14541404  0.36001567  0.85347727     0.37400
N2921       N  0.16172513  0.34176617  0.86631407    -0.89100
H2922       H  0.15639965  0.34603412  0.81639264     0.18500
H2923       H  0.10422508  0.41042044  0.86429098     0.18500
N2924       N  0.10137375  0.41656619  0.81378404    -0.88200
H2925       H  0.18077287  0.34486165  0.86034141     0.35900
H2926       H  0.15625982  0.32317785  0.86061858     0.41000
H2927       H  0.11486368  0.42799630  0.80412235     0.40600
H2928       H  0.09189468  0.42877133  0.82667851     0.35500
C2929       C  0.14100968  0.39633925  0.60400715    -0.26200
C2930       C  0.12556023  0.37838127  0.61721434    -0.14300
C2931       C  0.11408267  0.35790087  0.60332909     0.36300
C2932       C  0.11790166  0.35606628  0.57690386    -0.25700
C2933       C  0.13307035  0.37415197  0.56371453    -0.14900
C2934       C  0.14485637  0.39439967  0.57750667     0.37400
N2935       N  0.16007982  0.41352286  0.56464779    -0.89100
H2936       H  0.15030288  0.41199734  0.61424997     0.18500
H2937       H  0.10865865  0.34040803  0.56659748     0.18500
N2938       N  0.09826898  0.33896797  0.61578517    -0.88200
H2939       H  0.17855918  0.41349962  0.57275752     0.35900
H2940       H  0.15173554  0.43161638  0.56802464     0.41000
H2941       H  0.10640714  0.32075592  0.61252872     0.40600
H2942       H  0.07995053  0.33929650  0.60733195     0.35500
C2943       C  0.24094841  0.37247599  0.71037175    -0.26200
C2944       C  0.22143915  0.38046302  0.69359563    -0.14300
C2945       C  0.22788917  0.38679703  0.66801150     0.36300
C2946       C  0.25375665  0.38536323  0.66000603    -0.25700
C2947       C  0.27327119  0.37723792  0.67673484    -0.14900
C2948       C  0.26681780  0.37108651  0.70240445     0.37400
N2949       N  0.28652520  0.36388308  0.72048062    -0.89100
H2950       H  0.23605449  0.36773946  0.72996324     0.18500
H2951       H  0.25859408  0.39000613  0.64038251     0.18500
N2952       N  0.20812109  0.39399838  0.65001002    -0.88200
H2953       H  0.27843079  0.35951749  0.73828242     0.35900
H2954       H  0.29841363  0.37998656  0.72328242     0.41000
H2955       H  0.19624283  0.37788647  0.64721132     0.40600
H2956       H  0.21617502  0.39839973  0.63219939     0.35500
C2957       C  0.23553605  0.64308979  0.81733115    -0.26200
C2958       C  0.22680885  0.62390165  0.80023778    -0.14300
C2959       C  0.24366203  0.60309824  0.79457620     0.36300
C2960       C  0.26824772  0.60210527  0.80584740    -0.25700
C2961       C  0.27705060  0.62135472  0.82291230    -0.14900
C2962       C  0.26010807  0.64212515  0.82859872     0.37400
N2963       N  0.26709263  0.66272355  0.84554175    -0.89100
H2964       H  0.22307171  0.65920290  0.82218568     0.18500
H2965       H  0.28061336  0.58591948  0.80100535     0.18500
N2966       N  0.23637379  0.58232532  0.77795895    -0.88200
H2967       H  0.28340826  0.67211216  0.83828406     0.35900
H2968       H  0.27132137  0.65497125  0.86350686     0.41000
H2969       H  0.23255165  0.58982205  0.75980034     0.40600
H2970       H  0.21971396  0.57354014  0.78520820     0.35500
C2971       C  0.13755536  0.52140607  0.73246741    -0.26200
C2972       C  0.13161487  0.52635549  0.75830517    -0.14300
C2973       C  0.12396269  0.50568887  0.77410163     0.36300
C2974       C  0.12184407  0.48077520  0.76359913    -0.25700
C2975       C  0.12735758  0.47584394  0.73765170    -0.14900
C2976       C  0.13532463  0.49649086  0.72191992     0.37400
N2977       N  0.14053018  0.49232284  0.69523244    -0.89100
H2978       H  0.14320077  0.53726325  0.72014612     0.18500
H2979       H  0.11607018  0.46502031  0.77593705     0.18500
N2980       N  0.11865262  0.50994252  0.80075717    -0.88200
H2981       H  0.14643241  0.50949423  0.68646133     0.35900
H2982       H  0.12312097  0.48701368  0.68652416     0.41000
H2983       H  0.13592826  0.51571544  0.80943464     0.40600
H2984       H  0.11311289  0.49271105  0.80964915     0.35500
C2985       C  0.10831619  0.60759484  0.91917263    -0.26200
C2986       C  0.12553315  0.62423163  0.93200643    -0.14300
C2987       C  0.14240862  0.63983469  0.91751589     0.36300
C2988       C  0.14206332  0.63795334  0.89070963    -0.25700
C2989       C  0.12502392  0.62108062  0.87786529    -0.14900
C2990       C  0.10790937  0.60573696  0.89239060     0.37400
N2991       N  0.08975742  0.58875732  0.88007555    -0.89100
H2992       H  0.09527014  0.59552299  0.93011959     0.18500
H2993       H  0.15522580  0.64990938  0.87977097     0.18500
N2994       N  0.15953467  0.65779517  0.92991520    -0.88200
H2995       H  0.07711541  0.58065491  0.89345641     0.35900
H2996       H  0.10025653  0.57332456  0.87241017     0.41000
H2997       H  0.14810202  0.67181057  0.93886055     0.40600
H2998       H  0.17087928  0.66754753  0.91647496     0.35500
C2999       C  0.14231268  0.60561330  0.66766251    -0.26200
C3000       C  0.12694268  0.62351388  0.68096447    -0.14300
C3001       C  0.10852120  0.63825555  0.66703682     0.36300
C3002       C  0.10618910  0.63488193  0.64068184    -0.25700
C3003       C  0.12149897  0.61698682  0.62740074    -0.14900
C3004       C  0.13981497  0.60214620  0.64125619     0.37400
N3005       N  0.15684596  0.58409332  0.62910993    -0.89100
H3006       H  0.15635258  0.59397604  0.67786737     0.18500
H3007       H  0.09219035  0.64657105  0.63046712     0.18500
N3008       N  0.09219719  0.65726481  0.67875577    -0.88200
H3009       H  0.16738216  0.59383656  0.61505526     0.35900
H3010       H  0.14585765  0.56944781  0.62067830     0.41000
H3011       H  0.10368997  0.67045218  0.68876049     0.40600
H3012       H  0.07943125  0.64815416  0.69133458     0.35500
C3013       C  0.25442243  0.59997126  0.57954652    -0.26200
C3014       C  0.26937811  0.62190114  0.57399096    -0.14300
C3015       C  0.25859615  0.64125443  0.55788051     0.36300
C3016       C  0.23369165  0.63821623  0.54805413    -0.25700
C3017       C  0.21876423  0.61625985  0.55342087    -0.14900
C3018       C  0.22952907  0.59681712  0.56945903     0.37400
N3019       N  0.21617454  0.57332854  0.57547104    -0.89100
H3020       H  0.26232771  0.58472607  0.59141298     0.18500
H3021       H  0.22590304  0.65351901  0.53618751     0.18500
N3022       N  0.27208092  0.66450289  0.55124148    -0.88200
H3023       H  0.21076957  0.56420829  0.55845342     0.35900
H3024       H  0.19975807  0.57762189  0.58626965     0.41000
H3025       H  0.28805224  0.65992543  0.53988737     0.40600
H3026       H  0.27805107  0.67381866  0.56797122     0.35500
C3027       C  0.10174538  0.51090430  0.49490027    -0.26200
C3028       C  0.12279939  0.52228750  0.50762985    -0.14300
C3029       C  0.14588315  0.50799907  0.51049690     0.36300
C3030       C  0.14825150  0.48259846  0.99964001    -0.25700
C3031       C  0.12772685  0.47182556  0.98551048    -0.14900
C3032       C  0.10497891  0.48659725  0.98197024     0.37400
N3033       N  0.08316328  0.47602101  0.96850720    -0.89100
H3034       H  0.08392556  0.52173376  0.49286270     0.18500
H3035       H  0.16578016  0.47150351  0.00251019     0.18500
N3036       N  0.16794685  0.51923824  0.52301488    -0.88200
H3037       H  0.06836515  0.48970614  0.96695588     0.35900
H3038       H  0.07574401  0.46092844  0.97959185     0.41000
H3039       H  0.17440127  0.53458519  0.51168698     0.40600
H3040       H  0.18319510  0.50599858  0.52395341     0.35500
C3041       C  0.51831401  0.36726138  0.88944397    -0.26200
C3042       C  0.53051279  0.38184494  0.90872705    -0.14300
C3043       C  0.51507175  0.39398092  0.92765072     0.36300
C3044       C  0.48801865  0.39092558  0.92684013    -0.25700
C3045       C  0.47626834  0.37625144  0.90755134    -0.14900
C3046       C  0.49156358  0.36448041  0.88863741     0.37400
N3047       N  0.48041763  0.34924550  0.86857844    -0.89100
H3048       H  0.52959641  0.35788575  0.87464905     0.18500
H3049       H  0.47600541  0.40022418  0.94112249     0.18500
N3050       N  0.52668542  0.40923752  0.94755350    -0.88200
H3051       H  0.46794052  0.36092894  0.85793269     0.35900
H3052       H  0.46963256  0.33435732  0.87687592     0.41000
H3053       H  0.53722312  0.39669498  0.95925625     0.40600
H3054       H  0.51247779  0.41755517  0.95916701     0.35500
C3055       C  0.51116381  0.37280699  0.63512312    -0.26200
C3056       C  0.52369541  0.37805685  0.65832253    -0.14300
C3057       C  0.50895628  0.38408516  0.68019588     0.36300
C3058       C  0.48183188  0.38440084  0.67843850    -0.25700
C3059       C  0.46923072  0.37848281  0.65537461    -0.14900
C3060       C  0.48409292  0.37296342  0.63335988     0.37400
N3061       N  0.47171851  0.36807481  0.60920493    -0.89100
H3062       H  0.52261520  0.36860981  0.61826344     0.18500
H3063       H  0.47046193  0.38891326  0.69526166     0.18500
N3064       N  0.52153703  0.39088280  0.70376564    -0.88200
H3065       H  0.48544231  0.36416537  0.59503771     0.35900
H3066       H  0.46227262  0.38505997  0.60370707     0.41000
H3067       H  0.53050465  0.37425534  0.71083219     0.40600
H3068       H  0.50790952  0.39637876  0.71750106     0.35500
C3069       C  0.61531450  0.36353043  0.76936028    -0.26200
C3070       C  0.62608433  0.38478752  0.75638785    -0.14300
C3071       C  0.64070271  0.40307074  0.77051699     0.36300
C3072       C  0.64363378  0.39982519  0.79707939    -0.25700
C3073       C  0.63250867  0.37873720  0.80985804    -0.14900
C3074       C  0.61845842  0.36031771  0.79571192     0.37400
N3075       N  0.60758442  0.33804658  0.80795076    -0.89100
H3076       H  0.60439399  0.34902060  0.75903419     0.18500
H3077       H  0.65428646  0.41413308  0.80794317     0.18500
N3078       N  0.65251110  0.42485938  0.75808868    -0.88200
H3079       H  0.61534191  0.32154745  0.79930891     0.35900
H3080       H  0.58763629  0.33809554  0.80468651     0.41000
H3081       H  0.66740529  0.41778451  0.74653469     0.40600
H3082       H  0.66130504  0.43703513  0.77147002     0.35500
C3083       C  0.64413158  0.36652672  0.51827106    -0.26200
C3084       C  0.62791604  0.38462712  0.50600057    -0.14300
C3085       C  0.61306759  0.40168744  0.52103598     0.36300
C3086       C  0.61406709  0.39956997  0.54776410    -0.25700
C3087       C  0.62972212  0.38099431  0.55998932    -0.14900
C3088       C  0.64514142  0.36443670  0.54499970     0.37400
N3089       N  0.66131614  0.34521620  0.55678026    -0.89100
H3090       H  0.65592889  0.35355528  0.50693128     0.18500
H3091       H  0.60244749  0.41266485  0.55914395     0.18500
N3092       N  0.59648808  0.42058574  0.50931350    -0.88200
H3093       H  0.67184914  0.33505487  0.54298337     0.35900
H3094       H  0.64918605  0.33174387  0.56561721     0.41000
H3095       H  0.60185283  0.43257409  0.00075375     0.40600
H3096       H  0.58555493  0.43028293  0.52313274     0.35500
C3097       C  0.51620934  0.61716787  0.81919472    -0.26200
C3098       C  0.52954971  0.62026971  0.84235220    -0.14300
C3099       C  0.51553292  0.62301352  0.86534006     0.36300
C3100       C  0.48845111  0.62344899  0.86457967    -0.25700
C3101       C  0.47503625  0.62132550  0.84136464    -0.14900
C3102       C  0.48914006  0.61787416  0.81842659     0.37400
N3103       N  0.47657558  0.61435090  0.79426841    -0.89100
H3104       H  0.52689641  0.61473539  0.80152882     0.18500
H3105       H  0.47771436  0.62568853  0.88224186     0.18500
N3106       N  0.52885839  0.62501833  0.88940328    -0.88200
H3107       H  0.46596757  0.63098057  0.78999664     0.35900
H3108       H  0.46388364  0.59869259  0.79573829     0.41000
H3109       H  0.53859667  0.60757470  0.89245580     0.40600
H3110       H  0.51570311  0.62705654  0.90445227     0.35500
C3111       C  0.65540902  0.51728176  0.87459306    -0.26200
C3112       C  0.63210584  0.52806338  0.86576186    -0.14300
C3113       C  0.60894029  0.51389107  0.86874085     0.36300
C3114       C  0.60976691  0.48904534  0.87979168    -0.25700
C3115       C  0.63322044  0.47802778  0.88784735    -0.14900
C3116       C  0.65630131  0.49238225  0.88529520     0.37400
N3117       N  0.68047309  0.48198850  0.89422009    -0.89100
H3118       H  0.67315548  0.52828599  0.87289995     0.18500
H3119       H  0.59207599  0.47798144  0.88165536     0.18500
N3120       N  0.58463381  0.52490319  0.86104232    -0.88200
H3121       H  0.69505477  0.49594396  0.89313899     0.35900
H3122       H  0.68597085  0.46727631  0.88165842     0.41000
H3123       H  0.58106648  0.54086201  0.87280262     0.40600
H3124       H  0.56954085  0.51185849  0.86425441     0.35500
C3125       C  0.50960025  0.61310839  0.57370538    -0.26200
C3126       C  0.52261015  0.62457487  0.59439653    -0.14300
C3127       C  0.50786296  0.63466311  0.61489221     0.36300
C3128       C  0.48070911  0.63317826  0.61404355    -0.25700
C3129       C  0.46762740  0.62154547  0.59341392    -0.14900
C3130       C  0.48255424  0.61149989  0.57292824     0.37400
N3131       N  0.47101723  0.60002981  0.55076893    -0.89100
H3132       H  0.52055063  0.60541604  0.55775698     0.18500
H3133       H  0.46971140  0.64083854  0.62996505     0.18500
N3134       N  0.52038862  0.64594925  0.63676778    -0.88200
H3135       H  0.45825895  0.61332889  0.54256128     0.35900
H3136       H  0.46091146  0.58345878  0.55627086     0.41000
H3137       H  0.53049516  0.63121714  0.64611689     0.40600
H3138       H  0.50676159  0.65292956  0.64982923     0.35500
C3139       C  0.61760188  0.64674871  0.95493324    -0.26200
C3140       C  0.62789667  0.62555559  0.94176045    -0.14300
C3141       C  0.63367503  0.60258249  0.95523077     0.36300
C3142       C  0.62957455  0.60162155  0.98185313    -0.25700
C3143       C  0.61995729  0.62319303  0.99506194    -0.14900
C3144       C  0.61381362  0.64585682  0.98136725     0.37400
N3145       N  0.60359410  0.66806047  0.99428211    -0.89100
H3146       H  0.61268577  0.66427012  0.94466032     0.18500
H3147       H  0.63456696  0.58430394  0.99240214     0.18500
N3148       N  0.64331678  0.58030294  0.94182893    -0.88200
H3149       H  0.58564489  0.67249274  0.98619656     0.35900
H3150       H  0.60353192  0.67979339  0.48990138     0.41000
H3151       H  0.62879782  0.57403101  0.92937093     0.40600
H3152       H  0.64672289  0.56510071  0.95455795     0.35500
C3153       C  0.62774070  0.60195815  0.73038956    -0.26200
C3154       C  0.62153542  0.62386508  0.74499603    -0.14300
C3155       C  0.61639481  0.64753496  0.73237149     0.36300
C3156       C  0.61868528  0.64902289  0.70566530    -0.25700
C3157       C  0.62602099  0.62746384  0.69121091    -0.14900
C3158       C  0.63008653  0.60352532  0.70371336     0.37400
N3159       N  0.63590918  0.58038286  0.68978260    -0.89100
H3160       H  0.63152915  0.58368591  0.73979433     0.18500
H3161       H  0.61484515  0.66717572  0.69604591     0.18500
N3162       N  0.60874116  0.66999085  0.74672465    -0.88200
H3163       H  0.65345024  0.58288666  0.68019401     0.35900
H3164       H  0.62131084  0.57729588  0.67628867     0.41000
H3165       H  0.59083008  0.66596382  0.75509820     0.40600
H3166       H  0.60591401  0.68582442  0.73462545     0.35500
C3167       C  0.60294664  0.51591641  0.61390944    -0.26200
C3168       C  0.62594978  0.53016384  0.61587135    -0.14300
C3169       C  0.64738177  0.51885953  0.62861363     0.36300
C3170       C  0.64510888  0.49391713  0.63921015    -0.25700
C3171       C  0.62212616  0.47965574  0.63708972    -0.14900
C3172       C  0.60069738  0.49100297  0.62444405     0.37400
N3173       N  0.57654918  0.47734851  0.62253204    -0.89100
H3174       H  0.58630871  0.52450240  0.60462364     0.18500
H3175       H  0.66171424  0.48523576  0.64847120     0.44100
N3176       N  0.67154387  0.53248865  0.63047483    -0.88200
H3177       H  0.56291689  0.48820221  0.61239922     0.35900
H3178       H  0.56927492  0.47517466  0.64105851     0.41000
H3179       H  0.67887376  0.53447744  0.61194816     0.40600
H3180       H  0.68512410  0.52167365  0.64071648     0.35500
C3181       C  0.98654324  0.62908321  0.76236025    -0.26200
C3182       C  0.97372351  0.61797169  0.78333605    -0.14300
C3183       C  0.98883579  0.60674709  0.80307582     0.36300
C3184       C  0.01589988  0.60733617  0.80148694    -0.25700
C3185       C  0.02865078  0.61892294  0.78070042    -0.14900
C3186       C  0.01347403  0.62974232  0.76077431     0.37400
N3187       N  0.02457326  0.64111973  0.73832827    -0.89100
H3188       H  0.97553993  0.63741546  0.74677018     0.18500
H3189       H  0.02704592  0.59891820  0.81692836     0.18500
N3190       N  0.97750950  0.59508695  0.82523822    -0.88200
H3191       H  0.03687786  0.62769384  0.72964534     0.35900
H3192       H  0.03494260  0.65764418  0.74348848     0.41000
H3193       H  0.96645218  0.57920053  0.81953566     0.40600
H3194       H  0.96563123  0.60865793  0.83427261     0.35500
C3195       C  0.75694167  0.61867224  0.78777338    -0.26200
C3196       C  0.77685285  0.62329997  0.80533138    -0.14300
C3197       C  0.77073015  0.62709835  0.83148028     0.36300
C3198       C  0.74476352  0.62709521  0.83924475    -0.25700
C3199       C  0.72485081  0.62361405  0.82149402    -0.14900
C3200       C  0.73107261  0.61907237  0.79547123     0.37400
N3201       N  0.71163108  0.61431421  0.77650649    -0.89100
H3202       H  0.76145155  0.61543803  0.76778779     0.18500
H3203       H  0.74000430  0.63037219  0.85916556     0.18500
N3204       N  0.79087532  0.63080995  0.85009414    -0.88200
H3205       H  0.70023225  0.63083998  0.77439726     0.35900
H3206       H  0.70000724  0.59899154  0.78264353     0.41000
H3207       H  0.80163561  0.61372068  0.85098157     0.40600
H3208       H  0.78306624  0.63368935  0.86831528     0.35500
C3209       C  0.98146003  0.64257868  0.54099165    -0.26200
C3210       C  0.96865467  0.61928304  0.53579080    -0.14300
C3211       C  0.98318314  0.59716779  0.52921385     0.36300
C3212       C  0.01012283  0.59883562  0.52784901    -0.25700
C3213       C  0.02305699  0.62212143  0.53319579    -0.14900
C3214       C  0.00854286  0.64426031  0.53984499     0.37400
N3215       N  0.02122756  0.66849486  0.54471550    -0.89100
H3216       H  0.97021054  0.65961218  0.54568471     0.18500
H3217       H  0.02103309  0.58173851  0.52262227     0.18500
N3218       N  0.97107190  0.57308826  0.52289751    -0.88200
H3219       H  0.00774773  0.68273052  0.54959899     0.35900
H3220       H  0.02985705  0.67447658  0.52763381     0.41000
H3221       H  0.95819787  0.57620075  0.50779501     0.40600
H3222       H  0.96063619  0.56666620  0.53877569     0.35500
C3223       C  0.89066883  0.60946415  0.92423371    -0.26200
C3224       C  0.87022794  0.62335318  0.93546329    -0.14300
C3225       C  0.85187016  0.63556088  0.91967272     0.36300
C3226       C  0.85442392  0.63395865  0.89317385    -0.25700
C3227       C  0.87487315  0.62018714  0.88174929    -0.14900
C3228       C  0.89311384  0.60758503  0.89746681     0.37400
N3229       N  0.91422788  0.59344896  0.88631812    -0.89100
H3230       H  0.90476291  0.60006589  0.93643063     0.18500
H3231       H  0.84018497  0.64366050  0.88137683     0.18500
N3232       N  0.83099285  0.65050509  0.92997409    -0.88200
H3233       H  0.92572146  0.58516398  0.90057590     0.35900
H3234       H  0.92594071  0.60669500  0.87663934     0.41000
H3235       H  0.83870148  0.66486103  0.94180768     0.40600
H3236       H  0.81923772  0.63840098  0.94094049     0.35500
C3237       C  0.84845360  0.62607302  0.64413303    -0.26200
C3238       C  0.87110375  0.61764167  0.63181171    -0.14300
C3239       C  0.89303054  0.61135660  0.64662258     0.36300
C3240       C  0.89206507  0.61424963  0.67319473    -0.25700
C3241       C  0.86946046  0.62280903  0.68547006    -0.14900
C3242       C  0.84732080  0.62854175  0.67083426     0.37400
N3243       N  0.82402246  0.63737558  0.68304905    -0.89100
H3244       H  0.83161419  0.63099531  0.63280538     0.18500
H3245       H  0.90906499  0.60953285  0.68438501     0.18500
N3246       N  0.91673901  0.60287314  0.63521341    -0.88200
H3247       H  0.80949716  0.64063402  0.66952113     0.35900
H3248       H  0.82802494  0.65524977  0.69150457     0.41000
H3249       H  0.92279947  0.61682610  0.62206103     0.40600
H3250       H  0.91329454  0.58555734  0.62550559     0.35500
C3251       C  0.73845605  0.62246528  0.58588443    -0.26200
C3252       C  0.71867242  0.62447428  0.56775152    -0.14300
C3253       C  0.72504904  0.62410107  0.54138436     0.36300
C3254       C  0.75122103  0.62295006  0.53391836    -0.25700
C3255       C  0.77102545  0.62236185  0.55221867    -0.14900
C3256       C  0.76437253  0.62165244  0.57852317     0.37400
N3257       N  0.78344643  0.61963899  0.59830900    -0.89100
H3258       H  0.73381065  0.62226148  0.60609199     0.18500
H3259       H  0.75620424  0.62312397  0.51379385     0.18500
N3260       N  0.70500758  0.62469500  0.52232714    -0.88200
H3261       H  0.79463790  0.63642981  0.59856963     0.35900
H3262       H  0.79528590  0.60370941  0.59450990     0.41000
H3263       H  0.69424102  0.60768841  0.52414868     0.40600
H3264       H  0.71297350  0.62446659  0.50395161     0.35500
C3265       C  0.98972138  0.37751316  0.98968791    -0.26200
C3266       C  0.97567844  0.37610006  0.96673629    -0.14300
C3267       C  0.98937303  0.37547933  0.94325738     0.36300
C3268       C  0.01645403  0.37641706  0.94330655    -0.25700
C3269       C  0.03036586  0.37725357  0.96629445    -0.14900
C3270       C  0.01687017  0.37796211  0.98973891     0.37400
N3271       N  0.03036713  0.38313455  0.51162028    -0.89100
H3272       H  0.97918842  0.38024693  0.50595605     0.18500
H3273       H  0.02672715  0.37591300  0.92524948     0.18500
N3274       N  0.97643064  0.37447181  0.91906702    -0.88200
H3275       H  0.01755000  0.38440341  0.52703170     0.35900
H3276       H  0.03982226  0.40096085  0.51048174     0.41000
H3277       H  0.96347967  0.38995127  0.91795148     0.40600
H3278       H  0.96619494  0.35711283  0.91780777     0.35500
C3279       C  0.76116829  0.36806183  0.96061256    -0.26200
C3280       C  0.77948065  0.38193950  0.94643099    -0.14300
C3281       C  0.77152879  0.39361590  0.92309989     0.36300
C3282       C  0.74588536  0.39120556  0.91488272    -0.25700
C3283       C  0.72752963  0.37735840  0.92912750    -0.14900
C3284       C  0.73558827  0.36561427  0.95244310     0.37400
N3285       N  0.71845575  0.35129759  0.96866931    -0.89100
H3286       H  0.76669638  0.35895075  0.97845194     0.18500
H3287       H  0.74033576  0.40035680  0.89707492     0.18500
N3288       N  0.78893222  0.40762452  0.90690923    -0.88200
H3289       H  0.71129965  0.33535585  0.95864534     0.35900
H3290       H  0.70327146  0.36327098  0.97449692     0.41000
H3291       H  0.80432634  0.39556289  0.90184080     0.40600
H3292       H  0.79583119  0.42377599  0.91677862     0.35500
C3293       C  0.86373900  0.49181452  0.47872455    -0.26200
C3294       C  0.87529111  0.47566763  0.99385002    -0.14300
C3295       C  0.88376659  0.48309926  0.01861458     0.36300
C3296       C  0.88059189  0.50880471  0.02674851    -0.25700
C3297       C  0.86977744  0.52493548  0.51150381    -0.14900
C3298       C  0.86045740  0.51736179  0.48716572     0.37400
N3299       N  0.84812496  0.53561109  0.47055879    -0.89100
H3300       H  0.85633675  0.48652606  0.46006196     0.18500
H3301       H  0.88718416  0.51427324  0.04565388     0.18500
N3302       N  0.89518412  0.46457189  0.03573274    -0.88200
H3303       H  0.82962047  0.52871900  0.46627196     0.35900
H3304       H  0.85868459  0.53650278  0.45353167     0.41000
H3305       H  0.88069212  0.45151267  0.04097756     0.40600
H3306       H  0.90130666  0.47346516  0.05263690     0.35500
C3307       C  0.98390130  0.39817592  0.72269668    -0.26200
C3308       C  0.97052839  0.37626884  0.71397872    -0.14300
C3309       C  0.98464227  0.35549194  0.70328238     0.36300
C3310       C  0.01177113  0.35682275  0.70232285    -0.25700
C3311       C  0.02519050  0.37828936  0.71201019    -0.14900
C3312       C  0.01097807  0.39959891  0.72155424     0.37400
N3313       N  0.02398698  0.42266868  0.72994894    -0.89100
H3314       H  0.97314315  0.41442297  0.73031672     0.18500
H3315       H  0.02252083  0.34051751  0.69483259     0.18500
N3316       N  0.97154999  0.33277345  0.69414896    -0.88200
H3317       H  0.01071872  0.43632391  0.73668288     0.35900
H3318       H  0.03291802  0.43089595  0.71396833     0.41000
H3319       H  0.96310482  0.32369413  0.70993419     0.40600
H3320       H  0.98473048  0.31957690  0.68642996     0.35500
C3321       C  0.87631029  0.39999167  0.82970970    -0.26200
C3322       C  0.86771674  0.37696028  0.81825753    -0.14300
C3323       C  0.86216475  0.35539031  0.83372737     0.36300
C3324       C  0.86578923  0.35723038  0.86035560    -0.25700
C3325       C  0.87441388  0.38031015  0.87180689    -0.14900
C3326       C  0.87964202  0.40194895  0.85628304     0.37400
N3327       N  0.88895691  0.42558781  0.86743471    -0.89100
H3328       H  0.88081175  0.41648770  0.81773458     0.18500
H3329       H  0.86163788  0.34061810  0.87227929     0.18500
N3330       N  0.85405165  0.33144661  0.82232159    -0.88200
H3331       H  0.89174013  0.43966357  0.85336102     0.35900
H3332       H  0.90714118  0.42179490  0.87533174     0.41000
H3333       H  0.83566239  0.33437703  0.81455721     0.40600
H3334       H  0.85197837  0.31714303  0.83628807     0.35500
C3335       C  0.85105867  0.38707176  0.60801677    -0.26200
C3336       C  0.87260750  0.37786804  0.62155150    -0.14300
C3337       C  0.89303933  0.36584570  0.60814826     0.36300
C3338       C  0.89142176  0.36322540  0.58151338    -0.25700
C3339       C  0.86984130  0.37227190  0.56795383    -0.14900
C3340       C  0.84939965  0.38427074  0.58143457     0.37400
N3341       N  0.82721886  0.39459055  0.56860413    -0.89100
H3342       H  0.83524449  0.39618620  0.61820070     0.18500
H3343       H  0.90729877  0.35438759  0.57117545     0.18500
N3344       N  0.91557865  0.35681894  0.62156776    -0.88200
H3345       H  0.81770947  0.37950745  0.55921651     0.35900
H3346       H  0.83347047  0.40803711  0.55502784     0.41000
H3347       H  0.92480545  0.37295617  0.62942471     0.40600
H3348       H  0.92874438  0.34836110  0.60890350     0.35500
C3349       C  0.75232460  0.38181579  0.71529228    -0.26200
C3350       C  0.77273943  0.37856253  0.69799611    -0.14300
C3351       C  0.76696881  0.37429023  0.67181215     0.36300
C3352       C  0.74118676  0.37416191  0.66344874    -0.25700
C3353       C  0.72082768  0.37889207  0.68050795    -0.14900
C3354       C  0.72644194  0.38215154  0.70684162     0.37400
N3355       N  0.70580170  0.38567024  0.72493843    -0.89100
H3356       H  0.75662719  0.38469885  0.73536788     0.18500
H3357       H  0.73710986  0.37118954  0.64333637     0.18500
N3358       N  0.78689100  0.36967022  0.65332014    -0.88200
H3359       H  0.71313493  0.38796486  0.74343006     0.35900
H3360       H  0.69478477  0.36872570  0.72508870     0.41000
H3361       H  0.79800233  0.35395803  0.65943038     0.40600
H3362       H  0.79873761  0.38597887  0.65224715     0.35500
C3363       C  0.88471664  0.48084633  0.76436832    -0.26200
C3364       C  0.87322869  0.47539198  0.74045872    -0.14300
C3365       C  0.86137045  0.49572950  0.72689696     0.36300
C3366       C  0.86057612  0.52057526  0.73781764    -0.25700
C3367       C  0.87176293  0.52594772  0.76185423    -0.14900
C3368       C  0.88410693  0.50572345  0.77519639     0.37400
N3369       N  0.89571873  0.51028203  0.79976990    -0.89100
H3370       H  0.89387972  0.46546450  0.77510101     0.18500
H3371       H  0.85151230  0.53602218  0.72709662     0.18500
N3372       N  0.85039800  0.49129796  0.70202796    -0.88200
H3373       H  0.90449665  0.49347893  0.80670700     0.35900
H3374       H  0.88084708  0.51480895  0.81255382     0.41000
H3375       H  0.86558968  0.48665388  0.68965459     0.40600
H3376       H  0.84200177  0.50820156  0.69488017     0.35500
C3377       C  0.14763803  0.23315905  0.96023809    -0.26200
C3378       C  0.12607674  0.22018108  0.97025945    -0.14300
C3379       C  0.10529549  0.23469575  0.98041459     0.36300
C3380       C  0.10654130  0.26181776  0.97999166    -0.25700
C3381       C  0.12790781  0.27473467  0.96943407    -0.14900
C3382       C  0.14895529  0.26017443  0.95994413     0.37400
N3383       N  0.17177859  0.27277275  0.95035376    -0.89100
H3384       H  0.16382091  0.22215030  0.95283912     0.18500
H3385       H  0.08982398  0.27340595  0.48754219     0.18500
N3386       N  0.08264186  0.22250114  0.49165159    -0.88200
H3387       H  0.18522154  0.25923476  0.94373161     0.35900
H3388       H  0.18051474  0.28232146  0.96571515     0.41000
H3389       H  0.07268901  0.21283046  0.47710978     0.40600
H3390       H  0.06973409  0.23603891  0.49924417     0.35500
C3391       C  0.14012262  0.23745924  0.73907064    -0.26200
C3392       C  0.13220561  0.22375039  0.71723016    -0.14300
C3393       C  0.12478401  0.23795903  0.69519106     0.36300
C3394       C  0.12447657  0.26496205  0.69589478    -0.25700
C3395       C  0.13159252  0.27868518  0.71794689    -0.14900
C3396       C  0.13994260  0.26458000  0.73968776     0.37400
N3397       N  0.14759474  0.27706744  0.76293309    -0.89100
H3398       H  0.14602605  0.22702788  0.75605952     0.18500
H3399       H  0.11866984  0.27533496  0.67882867     0.18500
N3400       N  0.11808728  0.22572248  0.67150600    -0.88200
H3401       H  0.13255613  0.28908782  0.76903969     0.35900
H3402       H  0.16406101  0.28820221  0.75940056     0.41000
H3403       H  0.10098584  0.21526260  0.67386405     0.40600
H3404       H  0.13306284  0.21325931  0.66615715     0.35500
C3405       C  0.10693603  0.11696725  0.82872469    -0.26200
C3406       C  0.13028559  0.12340248  0.81629116    -0.14300
C3407       C  0.15297491  0.12649146  0.83105580     0.36300
C3408       C  0.15146445  0.12406925  0.85777084    -0.25700
C3409       C  0.12808194  0.11776357  0.86992037    -0.14900
C3410       C  0.10562571  0.11408117  0.85532017     0.37400
N3411       N  0.08144095  0.10821844  0.86759421    -0.89100
H3412       H  0.08938605  0.11442634  0.81770887     0.18500
H3413       H  0.16869835  0.12688193  0.86924202     0.18500
N3414       N  0.17743658  0.13173077  0.81905857    -0.88200
H3415       H  0.06675387  0.10593231  0.85404414     0.35900
H3416       H  0.07631264  0.12417421  0.87877977     0.41000
H3417       H  0.18250345  0.11538125  0.80841406     0.40600
H3418       H  0.19194218  0.13408431  0.83279236     0.35500
C3419       C  0.14316359  0.10517117  0.60836633    -0.26200
C3420       C  0.12401514  0.11983418  0.62070263    -0.14300
C3421       C  0.10765245  0.13580810  0.60581217     0.36300
C3422       C  0.11106084  0.13695440  0.57940261    -0.25700
C3423       C  0.13047020  0.12262865  0.56700072    -0.14900
C3424       C  0.14663381  0.10637264  0.58190164     0.37400
N3425       N  0.16641937  0.09047038  0.57093170    -0.89100
H3426       H  0.15597462  0.09292414  0.61942477     0.18500
H3427       H  0.09821576  0.14929923  0.56849990     0.18500
N3428       N  0.08696256  0.15064458  0.61665658    -0.88200
H3429       H  0.18006183  0.10230069  0.56198253     0.35900
H3430       H  0.15802487  0.07806244  0.55751456     0.41000
H3431       H  0.09462955  0.16509194  0.62836484     0.40600
H3432       H  0.07516290  0.13838148  0.62743719     0.35500
C3433       C  0.39849757  0.26251124  0.90712348    -0.26200
C3434       C  0.37488316  0.27570486  0.90467833    -0.14300
C3435       C  0.35176119  0.26129194  0.90222517     0.36300
C3436       C  0.35284446  0.23409103  0.90249461    -0.25700
C3437       C  0.37651407  0.22100798  0.90472220    -0.14900
C3438       C  0.39957338  0.23548002  0.90688708     0.37400
N3439       N  0.42426914  0.22326494  0.90973511    -0.89100
H3440       H  0.41635209  0.27330567  0.90905031     0.18500
H3441       H  0.33512677  0.22300402  0.90100275     0.18500
N3442       N  0.32725228  0.27424408  0.90004753    -0.88200
H3443       H  0.42795145  0.21214193  0.89346068     0.35900
H3444       H  0.42358070  0.21106688  0.92565285     0.41000
H3445       H  0.32394854  0.28408895  0.91720229     0.40600
H3446       H  0.31224427  0.26084528  0.89810300     0.35500
C3447       C  0.27248682  0.12309579  0.95626147    -0.26200
C3448       C  0.27716462  0.11954680  0.92995421    -0.14300
C3449       C  0.25611369  0.11533890  0.91339192     0.36300
C3450       C  0.23090856  0.11519923  0.92345635    -0.25700
C3451       C  0.22624458  0.11920665  0.94967189    -0.14900
C3452       C  0.24739487  0.12306534  0.96635216     0.37400
N3453       N  0.24434216  0.12844352  0.99316732    -0.89100
H3454       H  0.28855016  0.12633592  0.96919172     0.18500
H3455       H  0.21465699  0.11236368  0.91066063     0.18500
N3456       N  0.26026237  0.11201386  0.88641345    -0.88200
H3457       H  0.23327187  0.09396710  0.49423649     0.35900
H3458       H  0.23397847  0.12645688  0.49941163     0.41000
H3459       H  0.26776395  0.12934832  0.87930728     0.40600
H3460       H  0.24270248  0.10895651  0.87697324     0.35500
C3461       C  0.39367536  0.26110721  0.65223991    -0.26200
C3462       C  0.37022311  0.27465460  0.65133055    -0.14300
C3463       C  0.34667170  0.26080719  0.65063552     0.36300
C3464       C  0.34717211  0.23362967  0.65078708    -0.25700
C3465       C  0.37060311  0.22010124  0.65262691    -0.14900
C3466       C  0.39413673  0.23397391  0.65319953     0.37400
N3467       N  0.41840453  0.22046678  0.65465668    -0.89100
H3468       H  0.41169324  0.27178812  0.65285014     0.18500
H3469       H  0.32914658  0.22295840  0.65033482     0.18500
N3470       N  0.32239301  0.27430137  0.64924520    -0.88200
H3471       H  0.43383652  0.23351034  0.65519292     0.35900
H3472       H  0.42049410  0.20974635  0.63783272     0.41000
H3473       H  0.31930723  0.28325294  0.66689603     0.40600
H3474       H  0.30714877  0.26123513  0.64692132     0.35500
C3475       C  0.36068355  0.10228169  0.76932568    -0.26200
C3476       C  0.37780822  0.11876383  0.75628464    -0.14300
C3477       C  0.39336105  0.13594534  0.77081102     0.36300
C3478       C  0.39089528  0.13663314  0.79740211    -0.25700
C3479       C  0.37318423  0.12074214  0.81035707    -0.14900
C3480       C  0.35817409  0.10303399  0.79592950     0.37400
N3481       N  0.34062498  0.08511807  0.80755252    -0.89100
H3482       H  0.34868007  0.08884017  0.75875572     0.18500
H3483       H  0.40294369  0.15001469  0.80800242     0.18500
N3484       N  0.41216537  0.15269573  0.75940943    -0.88200
H3485       H  0.32592435  0.09539782  0.81673937     0.35900
H3486       H  0.35073351  0.07393744  0.82087096     0.41000
H3487       H  0.40274467  0.16629430  0.74796733     0.40600
H3488       H  0.42479312  0.14161889  0.74827970     0.35500
C3489       C  0.38904649  0.10437578  0.54706613    -0.26200
C3490       C  0.36981748  0.11955506  0.55900870    -0.14300
C3491       C  0.35163263  0.13265237  0.54356805     0.36300
C3492       C  0.35375864  0.13099285  0.51684766    -0.25700
C3493       C  0.37331524  0.11626959  0.50507107    -0.14900
C3494       C  0.39105191  0.10268101  0.52035792     0.37400
N3495       N  0.41145397  0.08782681  0.50880624    -0.89100
H3496       H  0.40294803  0.09393192  0.55859959     0.18500
H3497       H  0.33988288  0.14122921  0.50507441     0.18500
N3498       N  0.33139043  0.14794344  0.55483101    -0.88200
H3499       H  0.42272461  0.07879926  0.52279059     0.35900
H3500       H  0.42413643  0.10275410  0.00065708     0.41000
H3501       H  0.31843144  0.13520035  0.56356808     0.40600
H3502       H  0.32083665  0.15761389  0.54071718     0.35500
C3503       C  0.27038886  0.12048839  0.70470924    -0.26200
C3504       C  0.27542439  0.12126681  0.67826162    -0.14300
C3505       C  0.25438493  0.12263603  0.66107586     0.36300
C3506       C  0.22907110  0.12269073  0.67060400    -0.25700
C3507       C  0.22410273  0.12199289  0.69703374    -0.14900
C3508       C  0.24496738  0.12097161  0.71427752     0.37400
N3509       N  0.24027002  0.11972909  0.74133692    -0.89100
H3510       H  0.28642361  0.11944168  0.71801134     0.18500
H3511       H  0.21308348  0.12336761  0.65721148     0.18500
N3512       N  0.25802223  0.12309395  0.63392873    -0.88200
H3513       H  0.25772912  0.11910634  0.75140004     0.35900
H3514       H  0.23077054  0.10229673  0.74508079     0.41000
H3515       H  0.26893018  0.10693421  0.62864410     0.40600
H3516       H  0.26822930  0.13981075  0.62907751     0.35500
C3517       C  0.37607209  0.76123855  0.86931677    -0.26200
C3518       C  0.37833879  0.77446089  0.84597596    -0.14300
C3519       C  0.37976477  0.76021591  0.82298110     0.36300
C3520       C  0.37883233  0.73312242  0.82380080    -0.25700
C3521       C  0.37603953  0.71984992  0.84701912    -0.14900
C3522       C  0.37465750  0.73402618  0.87006821     0.37400
N3523       N  0.37210763  0.72078663  0.89408947    -0.89100
H3524       H  0.37494452  0.77219759  0.88694144     0.18500
H3525       H  0.37992559  0.72226457  0.80610698     0.18500
N3526       N  0.38237066  0.77331355  0.79886446    -0.88200
H3527       H  0.37115090  0.73403351  0.90916393     0.35900
H3528       H  0.38892133  0.70992323  0.89688866     0.41000
H3529       H  0.38285210  0.76004808  0.78378366     0.40600
H3530       H  0.40024694  0.78275054  0.79887044     0.35500
C3531       C  0.39731835  0.98459914  0.87202029    -0.26200
C3532       C  0.37392664  0.97279088  0.86495131    -0.14300
C3533       C  0.35050621  0.98625826  0.86884595     0.36300
C3534       C  0.35095589  0.01111320  0.87970343    -0.25700
C3535       C  0.37425085  0.02289551  0.88717555    -0.14900
C3536       C  0.39772845  0.00927100  0.88328803     0.37400
N3537       N  0.42228633  0.02011713  0.89001382    -0.89100
H3538       H  0.41537199  0.97427703  0.86943396     0.18500
H3539       H  0.33290044  0.02141843  0.88231694     0.18500
N3540       N  0.32631396  0.97469735  0.86155972    -0.88200
H3541       H  0.42261642  0.02337964  0.90972706     0.35900
H3542       H  0.42444694  0.03776594  0.88052479     0.41000
H3543       H  0.32648388  0.97245583  0.84169287     0.40600
H3544       H  0.31087672  0.98701855  0.86583526     0.35500
C3545       C  0.34504211  0.76341866  0.59829535    -0.26200
C3546       C  0.36849383  0.77681925  0.60066873    -0.14300
C3547       C  0.39166521  0.76282001  0.60414965     0.36300
C3548       C  0.39099945  0.73564089  0.60434777    -0.25700
C3549       C  0.36770913  0.72220425  0.60078624    -0.14900
C3550       C  0.34440641  0.73622518  0.59816491     0.37400
N3551       N  0.32021949  0.72280339  0.59540311    -0.89100
H3552       H  0.32725908  0.77421727  0.59582065     0.18500
H3553       H  0.40884377  0.72488441  0.60656021     0.18500
N3554       N  0.41575568  0.77627735  0.60747508    -0.88200
H3555       H  0.30495836  0.73592619  0.59352297     0.35900
H3556       H  0.31691581  0.71256210  0.61232023     0.41000
H3557       H  0.43098845  0.76317118  0.60967530     0.40600
H3558       H  0.41455251  0.78671436  0.62455761     0.35500
C3559       C  0.35651677  0.89168767  0.98241000    -0.26200
C3560       C  0.37467036  0.87693611  0.99600599    -0.14300
C3561       C  0.39252481  0.86160743  0.98234784     0.36300
C3562       C  0.39144284  0.86072071  0.95564476    -0.25700
C3563       C  0.37300099  0.87504954  0.94196109    -0.14900
C3564       C  0.35560986  0.89116508  0.95556232     0.37400
N3565       N  0.33732355  0.90719800  0.94222597    -0.89100
H3566       H  0.34284016  0.90361224  0.99277186     0.18500
H3567       H  0.40521398  0.84861269  0.94561282     0.18500
N3568       N  0.41214116  0.84719216  0.99542645    -0.88200
H3569       H  0.34783529  0.92118427  0.93221623     0.35900
H3570       H  0.32557739  0.91724638  0.95511722     0.41000
H3571       H  0.43087938  0.85198852  0.48874000     0.40600
H3572       H  0.41003757  0.82769844  0.99057095     0.35500
C3573       C  0.38733835  0.89513265  0.70375612    -0.26200
C3574       C  0.37039872  0.87709216  0.69239542    -0.14300
C3575       C  0.35547427  0.86087920  0.70816191     0.36300
C3576       C  0.35862728  0.86233743  0.73473676    -0.25700
C3577       C  0.37612001  0.87981950  0.74611967    -0.14900
C3578       C  0.39038036  0.89668776  0.73039620     0.37400
N3579       N  0.40818779  0.91494296  0.74133284    -0.89100
H3580       H  0.39856892  0.90797724  0.69174263     0.18500
H3581       H  0.34714699  0.84964391  0.74666796     0.18500
N3582       N  0.33781997  0.84243000  0.69728954    -0.88200
H3583       H  0.41668493  0.92626452  0.72706758     0.35900
H3584       H  0.42316624  0.90442841  0.74982356     0.41000
H3585       H  0.32237313  0.85279903  0.68948324     0.40600
H3586       H  0.32985482  0.83070674  0.71153604     0.35500
C3587       C  0.36857236  0.97727711  0.64327942    -0.26200
C3588       C  0.36705618  0.97325500  0.61664695    -0.14300
C3589       C  0.36439699  0.99486820  0.60039981     0.36300
C3590       C  0.36485077  0.01974201  0.61087355    -0.25700
C3591       C  0.36732557  0.02372974  0.63736481    -0.14900
C3592       C  0.36842513  0.00228024  0.65384294     0.37400
N3593       N  0.37083833  0.00591488  0.68098752    -0.89100
H3594       H  0.37023303  0.96077748  0.65593723     0.18500
H3595       H  0.36370289  0.03620949  0.59810601     0.18500
N3596       N  0.36238132  0.99231214  0.57320960    -0.88200
H3597       H  0.37279467  0.98810853  0.69023855     0.35900
H3598       H  0.35350069  0.01391257  0.68754646     0.41000
H3599       H  0.34560316  0.98191414  0.56895606     0.40600
H3600       H  0.37843558  0.98204343  0.56653842     0.35500
C3601       C  0.11042685  0.76550002  0.76153439    -0.26200
C3602       C  0.12921066  0.77833948  0.77626063    -0.14300
C3603       C  0.14731834  0.76346289  0.79026626     0.36300
C3604       C  0.14545086  0.73648341  0.79008186    -0.25700
C3605       C  0.12635988  0.72357530  0.77589812    -0.14900
C3606       C  0.10870066  0.73834123  0.76122498     0.37400
N3607       N  0.08887649  0.72593941  0.74635046    -0.89100
H3608       H  0.09656445  0.77668847  0.75064657     0.18500
H3609       H  0.15936001  0.72545104  0.80106125     0.18500
N3610       N  0.16768646  0.77562234  0.80464756    -0.88200
H3611       H  0.07827704  0.73955906  0.73594433     0.35900
H3612       H  0.07588790  0.71740946  0.75913186     0.41000
H3613       H  0.18026339  0.78425828  0.79153372     0.40600
H3614       H  0.17861106  0.76193555  0.81462817     0.35500
C3615       C  0.11196232  0.98918146  0.76437571    -0.26200
C3616       C  0.13529171  0.97565773  0.76135827    -0.14300
C3617       C  0.15577035  0.98757164  0.74772837     0.36300
C3618       C  0.15218384  0.01233407  0.73709401    -0.25700
C3619       C  0.12875823  0.02574225  0.73998769    -0.14900
C3620       C  0.10834862  0.01385668  0.75370766     0.37400
N3621       N  0.08380279  0.02665130  0.75644357    -0.89100
H3622       H  0.09603933  0.98008809  0.77438324     0.18500
H3623       H  0.16804881  0.02148867  0.72704665     0.18500
N3624       N  0.18023846  0.97466814  0.74490722    -0.88200
H3625       H  0.07102265  0.01545975  0.76727192     0.35900
H3626       H  0.07567598  0.02829274  0.73821029     0.41000
H3627       H  0.18834141  0.97285427  0.76313346     0.40600
H3628       H  0.19306567  0.98590428  0.73417688     0.35500
C3629       C  0.23343513  0.87637470  0.82940014    -0.26200
C3630       C  0.22891155  0.87578803  0.80289189    -0.14300
C3631       C  0.24999047  0.87472455  0.78591691     0.36300
C3632       C  0.27521065  0.87416353  0.79585801    -0.25700
C3633       C  0.27976556  0.87479591  0.82238607    -0.14900
C3634       C  0.25853245  0.87614519  0.83929032     0.37400
N3635       N  0.26174781  0.87643486  0.86649302    -0.89100
H3636       H  0.21727055  0.87711010  0.84258545     0.18500
H3637       H  0.29145531  0.87317236  0.78279561     0.18500
N3638       N  0.24572436  0.87352698  0.75878185    -0.88200
H3639       H  0.27185251  0.89312888  0.87163198     0.35900
H3640       H  0.27256462  0.86023849  0.87183631     0.41000
H3641       H  0.23628453  0.85610000  0.75485420     0.40600
H3642       H  0.26333685  0.87291596  0.74897907     0.35500
C3643       C  0.14317386  0.76222298  0.51027813    -0.26200
C3644       C  0.13091051  0.77593211  0.53009968    -0.14300
C3645       C  0.11860725  0.76175112  0.54984660     0.36300
C3646       C  0.11786176  0.73464203  0.54865363    -0.25700
C3647       C  0.12968333  0.72087977  0.52867747    -0.14900
C3648       C  0.14266903  0.73494097  0.50927896     0.37400
N3649       N  0.14908293  0.72106227  0.98686339    -0.89100
H3650       H  0.14756549  0.77219821  0.99417339     0.18500
H3651       H  0.10830391  0.72414534  0.56387409     0.18500
N3652       N  0.10718784  0.77478874  0.57137414    -0.88200
H3653       H  0.15676030  0.73427914  0.97379073     0.35900
H3654       H  0.13357697  0.71200996  0.97767198     0.41000
H3655       H  0.12217791  0.78349558  0.58166818     0.40600
H3656       H  0.09841962  0.76161507  0.58380155     0.35500
C3657       C  0.14732544  0.85861486  0.91933875    -0.26200
C3658       C  0.13376331  0.87697029  0.93364144    -0.14300
C3659       C  0.12079834  0.89726908  0.92081461     0.36300
C3660       C  0.12036052  0.89798229  0.89405814    -0.25700
C3661       C  0.13283304  0.87892546  0.87959273    -0.14900
C3662       C  0.14720525  0.85939529  0.89247394     0.37400
N3663       N  0.16169173  0.84040741  0.87836308    -0.89100
H3664       H  0.15761332  0.84329072  0.92913365     0.18500
H3665       H  0.10982245  0.91336253  0.88461494     0.18500
N3666       N  0.10819679  0.91743048  0.93490679    -0.88200
H3667       H  0.17051306  0.82717907  0.89070278     0.35900
H3668       H  0.17665097  0.85008903  0.86892096     0.41000
H3669       H  0.08869385  0.91770291  0.92964222     0.40600
H3670       H  0.11642094  0.93508167  0.92956281     0.35500
C3671       C  0.11594419  0.86026714  0.67052337    -0.26200
C3672       C  0.13408287  0.87652502  0.68245839    -0.14300
C3673       C  0.14864660  0.89375242  0.66711890     0.36300
C3674       C  0.14450885  0.89443015  0.64069374    -0.25700
C3675       C  0.12625933  0.87820394  0.62880737    -0.14900
C3676       C  0.11194639  0.86077294  0.64416059     0.37400
N3677       N  0.09281123  0.84365485  0.63386520    -0.89100
H3678       H  0.10454134  0.84689826  0.68180659     0.18500
H3679       H  0.15596892  0.90768927  0.62934235     0.18500
N3680       N  0.16729226  0.91123381  0.67766747    -0.88200
H3681       H  0.10179120  0.83027242  0.62181998     0.35900
H3682       H  0.07928391  0.85447379  0.62356616     0.41000
H3683       H  0.18193448  0.90053129  0.68646600     0.40600
H3684       H  0.15816494  0.92294499  0.69123583     0.35500
C3685       C  0.14895219  0.01434020  0.50457622    -0.26200
C3686       C  0.12714519  0.02358278  0.98856520    -0.14300
C3687       C  0.10429426  0.00874674  0.98661486     0.36300
C3688       C  0.10375702  0.98369698  0.99702192    -0.25700
C3689       C  0.12575692  0.97411777  0.51160841    -0.14900
C3690       C  0.14818618  0.98930594  0.51491990     0.37400
N3691       N  0.17034756  0.97915816  0.52815992    -0.89100
H3692       H  0.16632467  0.02578225  0.50700605     0.18500
H3693       H  0.08624667  0.97232160  0.99533058     0.18500
N3694       N  0.08154587  0.01924801  0.97468192    -0.88200
H3695       H  0.18492413  0.99309745  0.52949081     0.35900
H3696       H  0.17787617  0.96409920  0.51708868     0.41000
H3697       H  0.07505599  0.03455457  0.98606345     0.40600
H3698       H  0.06662654  0.00561067  0.97442833     0.35500
C3699       C  0.25475241  0.88364360  0.58908454    -0.26200
C3700       C  0.27496806  0.87729568  0.57247434    -0.14300
C3701       C  0.26926960  0.87082619  0.54678420     0.36300
C3702       C  0.24361583  0.87098724  0.53821085    -0.25700
C3703       C  0.22332332  0.87813644  0.55453059    -0.14900
C3704       C  0.22898134  0.88428924  0.58042514     0.37400
N3705       N  0.20857795  0.89095946  0.59793272    -0.89100
H3706       H  0.25915309  0.88857764  0.60874985     0.18500
H3707       H  0.23960118  0.86602793  0.51847533     0.18500
N3708       N  0.28914457  0.86358936  0.52906941    -0.88200
H3709       H  0.21605448  0.89536111  0.61599188     0.35900
H3710       H  0.19691929  0.87461748  0.60025123     0.41000
H3711       H  0.29945762  0.84804203  0.53675690     0.40600
H3712       H  0.30175846  0.87916681  0.52665024     0.35500
C3713       C  0.51664840  0.09926948  0.92251534    -0.26200
C3714       C  0.52951777  0.12057368  0.91169236    -0.14300
C3715       C  0.51443277  0.14163013  0.90268015     0.36300
C3716       C  0.48749485  0.14045050  0.90390632    -0.25700
C3717       C  0.47455796  0.11875094  0.91372394    -0.14900
C3718       C  0.48957281  0.09807254  0.92361773     0.37400
N3719       N  0.47812405  0.07529377  0.93429171    -0.89100
H3720       H  0.52767852  0.08303420  0.92975687     0.18500
H3721       H  0.47656066  0.15677989  0.89671692     0.18500
N3722       N  0.52562879  0.16471997  0.89236492    -0.88200
H3723       H  0.46613194  0.06678974  0.92057947     0.35900
H3724       H  0.46710440  0.08052599  0.95022392     0.41000
H3725       H  0.53538997  0.16026239  0.87544019     0.40600
H3726       H  0.53847610  0.17252160  0.90573073     0.35500
C3727       C  0.63341902  0.23787577  0.92823351    -0.26200
C3728       C  0.62376127  0.22458185  0.90683906    -0.14300
C3729       C  0.61337480  0.23921509  0.88629150     0.36300
C3730       C  0.61381811  0.26629669  0.88733879    -0.25700
C3731       C  0.62407234  0.27949062  0.90854694    -0.14900
C3732       C  0.63342157  0.26490347  0.92942182     0.37400
N3733       N  0.64262282  0.27731873  0.95216379    -0.89100
H3734       H  0.64086495  0.22724548  0.94449404     0.18500
H3735       H  0.60628405  0.27707240  0.87121382     0.18500
N3736       N  0.60266140  0.22738372  0.86390538    -0.88200
H3737       H  0.66174567  0.27153158  0.95522694     0.35900
H3738       H  0.63149257  0.27082674  0.96756786     0.41000
H3739       H  0.58657832  0.21638888  0.86918965     0.40600
H3740       H  0.61663499  0.21540750  0.85563506     0.35500
C3741       C  0.51382757  0.14678938  0.65626257    -0.26200
C3742       C  0.52757259  0.12346754  0.65814137    -0.14300
C3743       C  0.51383988  0.09990611  0.65957043     0.36300
C3744       C  0.48665512  0.10025668  0.65946509    -0.25700
C3745       C  0.47295572  0.12362207  0.65818788    -0.14900
C3746       C  0.48678818  0.14714697  0.65650770     0.37400
N3747       N  0.47396274  0.17159616  0.65419055    -0.89100
H3748       H  0.52419207  0.16494332  0.65486191     0.18500
H3749       H  0.47607273  0.08220566  0.66046859     0.18500
N3750       N  0.52750175  0.07571527  0.66054960    -0.88200
H3751       H  0.46303635  0.17488844  0.67067001     0.35900
H3752       H  0.46156591  0.17089563  0.63841349     0.41000
H3753       H  0.53744284  0.07357391  0.64326729     0.40600
H3754       H  0.51453541  0.06025591  0.66170673     0.35500
C3755       C  0.62697771  0.24040143  0.67993608    -0.26200
C3756       C  0.62511846  0.22716466  0.65657688    -0.14300
C3757       C  0.62319044  0.24138174  0.63361367     0.36300
C3758       C  0.62304208  0.26857375  0.63459207    -0.25700
C3759       C  0.62440007  0.28173659  0.65802623    -0.14900
C3760       C  0.62630592  0.26750111  0.68096976     0.37400
N3761       N  0.62851157  0.28056588  0.70515411    -0.89100
H3762       H  0.62849647  0.22950949  0.69756834     0.18500
H3763       H  0.62173915  0.27958088  0.61701594     0.18500
N3764       N  0.62187015  0.22822640  0.60942818    -0.88200
H3765       H  0.63176052  0.26729103  0.71987824     0.35900
H3766       H  0.61065586  0.28914666  0.70909574     0.41000
H3767       H  0.63936680  0.21843977  0.60681762     0.40600
H3768       H  0.62035324  0.24150860  0.59444269     0.35500
C3769       C  0.61839764  0.14586227  0.76926681    -0.26200
C3770       C  0.62455362  0.12287607  0.75630743    -0.14300
C3771       C  0.63467381  0.10180570  0.77030985     0.36300
C3772       C  0.63822161  0.10412541  0.79678147    -0.25700
C3773       C  0.63157576  0.12697864  0.80970862    -0.14900
C3774       C  0.62172082  0.14812388  0.79579034     0.37400
N3775       N  0.61542857  0.17190392  0.80862374    -0.89100
H3776       H  0.61115359  0.16226590  0.75855146     0.18500
H3777       H  0.64565918  0.08775310  0.80741358     0.18500
N3778       N  0.64222073  0.07818390  0.75812487    -0.88200
H3779       H  0.60835015  0.18554401  0.79564346     0.35900
H3780       H  0.63259345  0.17948454  0.81606928     0.41000
H3781       H  0.65594118  0.08242631  0.74405587     0.40600
H3782       H  0.62596342  0.07005731  0.74940127     0.35500
C3783       C  0.63527558  0.10394395  0.54807955    -0.26200
C3784       C  0.63063704  0.12784658  0.55999102    -0.14300
C3785       C  0.62350421  0.14932353  0.54494318     0.36300
C3786       C  0.62124831  0.14653310  0.51851963    -0.25700
C3787       C  0.62560090  0.12262909  0.50647176    -0.14900
C3788       C  0.63277233  0.10106169  0.52140913     0.37400
N3789       N  0.63803416  0.07657646  0.50949636    -0.89100
H3790       H  0.64053974  0.08740656  0.55968282     0.18500
H3791       H  0.61607103  0.16333774  0.50725125     0.18500
N3792       N  0.61921334  0.17439510  0.55582736    -0.88200
H3793       H  0.64275381  0.06269921  0.52325504     0.35900
H3794       H  0.65782257  0.08222301  0.99879002     0.41000
H3795       H  0.63560042  0.17967931  0.56630623     0.40600
H3796       H  0.60334133  0.17352723  0.56813934     0.35500
C3797       C  0.98653825  0.09898722  0.95777615    -0.26200
C3798       C  0.97378240  0.12179283  0.96514412    -0.14300
C3799       C  0.98859520  0.14390533  0.97132489     0.36300
C3800       C  0.01566809  0.14229137  0.97117475    -0.25700
C3801       C  0.02843660  0.11928802  0.96454424    -0.14900
C3802       C  0.01367957  0.09741007  0.95755755     0.37400
N3803       N  0.02617278  0.07346241  0.95103680    -0.89100
H3804       H  0.97529371  0.08199179  0.95299768     0.18500
H3805       H  0.02690230  0.15925189  0.97612349     0.18500
N3806       N  0.97619116  0.16799310  0.97754905    -0.88200
H3807       H  0.01252903  0.05944113  0.94600903     0.35900
H3808       H  0.03547140  0.06666078  0.96746240     0.41000
H3809       H  0.96650434  0.17435425  0.96116948     0.40600
H3810       H  0.98987863  0.18218484  0.98196033     0.35500
C3811       C  0.89752858  0.23814889  0.97266219    -0.26200
C3812       C  0.87439924  0.22441214  0.97561236    -0.14300
C3813       C  0.85101411  0.23802444  0.97917040     0.36300
C3814       C  0.85127401  0.26525011  0.97926647    -0.25700
C3815       C  0.87428629  0.27907773  0.97509518    -0.14900
C3816       C  0.89775380  0.26530436  0.97216649     0.37400
N3817       N  0.92175119  0.27889590  0.96869701    -0.89100
H3818       H  0.91543963  0.22758376  0.97004862     0.18500
H3819       H  0.83328362  0.27570215  0.98171497     0.18500
N3820       N  0.82722613  0.22421134  0.98316219    -0.88200
H3821       H  0.93708628  0.26591482  0.96645436     0.35900
H3822       H  0.92542162  0.28926259  0.98547159     0.41000
H3823       H  0.82254323  0.21482415  0.96608720     0.40600
H3824       H  0.81343791  0.23518436  0.49142782     0.35500
C3825       C  0.75765573  0.12319635  0.96544830    -0.26200
C3826       C  0.77785371  0.12389838  0.94758467    -0.14300
C3827       C  0.77178360  0.12307221  0.92110286     0.36300
C3828       C  0.74595509  0.12261120  0.91323260    -0.25700
C3829       C  0.72579818  0.12342538  0.93105560    -0.14900
C3830       C  0.73167462  0.12299095  0.95749261     0.37400
N3831       N  0.71125169  0.12214646  0.97614731    -0.89100
H3832       H  0.76214291  0.12333020  0.98568587     0.18500
H3833       H  0.74162394  0.12243220  0.89295728     0.18500
N3834       N  0.79132395  0.12218976  0.90167820    -0.88200
H3835       H  0.71883234  0.12201629  0.99467983     0.35900
H3836       H  0.70146782  0.10461885  0.97379481     0.41000
H3837       H  0.80384083  0.10680569  0.90553837     0.40600
H3838       H  0.80169278  0.13950737  0.90180622     0.35500
C3839       C  0.98585359  0.10185712  0.71421568    -0.26200
C3840       C  0.97206369  0.12518237  0.71419923    -0.14300
C3841       C  0.98571574  0.14881656  0.71307769     0.36300
C3842       C  0.01293541  0.14857538  0.71325432    -0.25700
C3843       C  0.02669623  0.12523003  0.71473713    -0.14900
C3844       C  0.01287386  0.10161103  0.71472765     0.37400
N3845       N  0.02569331  0.07705044  0.71470864    -0.89100
H3846       H  0.97554315  0.08362342  0.71467121     0.18500
H3847       H  0.02344975  0.16668761  0.71279460     0.18500
N3848       N  0.97190920  0.17289954  0.71160628    -0.88200
H3849       H  0.03597978  0.07495065  0.73176195     0.35900
H3850       H  0.03860639  0.07649290  0.69933428     0.41000
H3851       H  0.96179113  0.17305323  0.69429714     0.40600
H3852       H  0.98479829  0.18845365  0.71095889     0.35500
C3853       C  0.89204721  0.23824643  0.72680205    -0.26200
C3854       C  0.86891005  0.22434696  0.72395806    -0.14300
C3855       C  0.84520994  0.23799456  0.72260827     0.36300
C3856       C  0.84525275  0.26501682  0.72351138    -0.25700
C3857       C  0.86849387  0.27885288  0.72505796    -0.14900
C3858       C  0.89211930  0.26537717  0.72719554     0.37400
N3859       N  0.91604783  0.27930412  0.72977746    -0.89100
H3860       H  0.91022651  0.22789875  0.72809686     0.18500
H3861       H  0.82704752  0.27530128  0.72206008     0.18500
N3862       N  0.82080848  0.22503122  0.72071853    -0.88200
H3863       H  0.93166045  0.26651701  0.73098982     0.35900
H3864       H  0.91539839  0.28932605  0.74713083     0.41000
H3865       H  0.81925353  0.21192322  0.73584826     0.40600
H3866       H  0.82008328  0.21494132  0.70343569     0.35500
C3867       C  0.86807154  0.10256390  0.83106531    -0.26200
C3868       C  0.87496253  0.12549992  0.81839638    -0.14300
C3869       C  0.88427253  0.14666047  0.83275675     0.36300
C3870       C  0.88586404  0.14458469  0.85946627    -0.25700
C3871       C  0.87894563  0.12170307  0.87217953    -0.14900
C3872       C  0.87005987  0.10038285  0.85782045     0.37400
N3873       N  0.86236143  0.07693347  0.87043723    -0.89100
H3874       H  0.86113123  0.08625974  0.82000679     0.18500
H3875       H  0.89253338  0.16102155  0.87049787     0.18500
N3876       N  0.89105624  0.17053809  0.82037749    -0.88200
H3877       H  0.85654672  0.06306807  0.85707243     0.35900
H3878       H  0.84610425  0.08115299  0.88157210     0.41000
H3879       H  0.90831085  0.16746286  0.81043284     0.40600
H3880       H  0.89512832  0.18483814  0.83392425     0.35500
C3881       C  0.89504584  0.11046301  0.60801682    -0.26200
C3882       C  0.87467027  0.12153237  0.62189139    -0.14300
C3883       C  0.85347660  0.13251735  0.60866875     0.36300
C3884       C  0.85326098  0.13242345  0.58190143    -0.25700
C3885       C  0.87401095  0.12227475  0.56803945    -0.14900
C3886       C  0.89517712  0.11110526  0.58113100     0.37400
N3887       N  0.91631452  0.09983790  0.56715652    -0.89100
H3888       H  0.91120737  0.10196452  0.61817857     0.18500
H3889       H  0.83704514  0.14084681  0.57175233     0.18500
N3890       N  0.83217728  0.14367563  0.62247205    -0.88200
H3891       H  0.92933715  0.09093248  0.57965759     0.35900
H3892       H  0.92651501  0.11488401  0.55845548     0.41000
H3893       H  0.82357207  0.12890176  0.63303256     0.40600
H3894       H  0.81806882  0.15062444  0.60991148     0.35500
C3895       C  0.75565961  0.13039320  0.71642397    -0.26200
C3896       C  0.77489433  0.11985883  0.70084030    -0.14300
C3897       C  0.76804244  0.10936043  0.67671801     0.36300
C3898       C  0.74244500  0.11136606  0.66813091    -0.25700
C3899       C  0.72333228  0.12331701  0.68305474    -0.14900
C3900       C  0.72989509  0.13195521  0.70803650     0.37400
N3901       N  0.71047881  0.14222026  0.72492298    -0.89100
H3902       H  0.76090731  0.13804254  0.73500991     0.18500
H3903       H  0.73759880  0.10373012  0.64943851     0.18500
N3904       N  0.78620715  0.09587039  0.66073335    -0.88200
H3905       H  0.71868204  0.14819853  0.74221272     0.35900
H3906       H  0.69779317  0.12714363  0.72939942     0.41000
H3907       H  0.80461355  0.09505476  0.66885792     0.40600
H3908       H  0.78766811  0.10597609  0.64351856     0.35500
C3909       C  0.85346839  0.76494324  0.77533264    -0.26200
C3910       C  0.87686229  0.77842317  0.77848681    -0.14300
C3911       C  0.90004032  0.76420121  0.78155292     0.36300
C3912       C  0.89925295  0.73700547  0.78162928    -0.25700
C3913       C  0.87581832  0.72364456  0.77924100    -0.14900
C3914       C  0.85262943  0.73772265  0.77610213     0.37400
N3915       N  0.82843179  0.72436765  0.77306979    -0.89100
H3916       H  0.83565328  0.77570906  0.77296962     0.18500
H3917       H  0.91699656  0.72612876  0.78406353     0.18500
N3918       N  0.92434447  0.77737507  0.78440410    -0.88200
H3919       H  0.81348440  0.73750273  0.76953718     0.35900
H3920       H  0.82402066  0.71551691  0.79048624     0.41000
H3921       H  0.92804231  0.78718576  0.76732066     0.40600
H3922       H  0.93942224  0.76413200  0.78682708     0.35500
C3923       C  0.99225366  0.88467188  0.76055141    -0.26200
C3924       C  0.97871408  0.88111641  0.78352636    -0.14300
C3925       C  0.99261649  0.87993539  0.80677601     0.36300
C3926       C  0.01985146  0.88144350  0.80632914    -0.25700
C3927       C  0.03329913  0.88381281  0.78312986    -0.14900
C3928       C  0.01919083  0.88577904  0.76005814     0.37400
N3929       N  0.03163488  0.88942443  0.73583332    -0.89100
H3930       H  0.98182384  0.88601928  0.74262332     0.18500
H3931       H  0.03064577  0.88016051  0.82404095     0.18500
N3932       N  0.97910183  0.87747503  0.83066649    -0.88200
H3933       H  0.04285869  0.87318553  0.73164537     0.35900
H3934       H  0.04363870  0.90564116  0.73701607     0.41000
H3935       H  0.96807366  0.89422284  0.83321361     0.40600
H3936       H  0.99217751  0.87677069  0.84589751     0.35500
C3937       C  0.85288256  0.98940184  0.76042612    -0.26200
C3938       C  0.87625152  0.97591515  0.75771058    -0.14300
C3939       C  0.89700777  0.98778890  0.74449436     0.36300
C3940       C  0.89392424  0.01280140  0.73454171    -0.25700
C3941       C  0.87075376  0.02651883  0.73770385    -0.14900
C3942       C  0.84977387  0.01441342  0.75035854     0.37400
N3943       N  0.82530469  0.02740352  0.75277122    -0.89100
H3944       H  0.83672696  0.98014809  0.76991948     0.18500
H3945       H  0.91012633  0.02199393  0.72507201     0.18500
N3946       N  0.92136664  0.97467039  0.74161988    -0.88200
H3947       H  0.81205431  0.01594175  0.76273956     0.35900
H3948       H  0.81782504  0.02981995  0.73435316     0.41000
H3949       H  0.92933787  0.97247522  0.75986111     0.40600
H3950       H  0.93439805  0.98590380  0.73113039     0.35500
C3951       C  0.86208209  0.76403069  0.54988031    -0.26200
C3952       C  0.87033764  0.77656445  0.52751203    -0.14300
C3953       C  0.87835781  0.76156103  0.50637291     0.36300
C3954       C  0.87859525  0.73445101  0.50842075    -0.25700
C3955       C  0.87060988  0.72195088  0.53095201    -0.14900
C3956       C  0.86228673  0.73703586  0.55196180     0.37400
N3957       N  0.85458916  0.72505313  0.57558356    -0.89100
H3958       H  0.85606554  0.77538954  0.56624260     0.18500
H3959       H  0.88471219  0.72301403  0.49215133     0.18500
N3960       N  0.88589223  0.77377225  0.48283578    -0.88200
H3961       H  0.84837353  0.73889143  0.58880295     0.35900
H3962       H  0.87099383  0.71634929  0.58348697     0.41000
H3963       H  0.86954945  0.78298216  0.47537759     0.40600
H3964       H  0.89151749  0.75996886  0.46932646     0.35500
C3965       C  0.98382071  0.85260577  0.53315778    -0.26200
C3966       C  0.97122280  0.87653776  0.53090683    -0.14300
C3967       C  0.98605915  0.89934456  0.52914580     0.36300
C3968       C  0.01320907  0.89769151  0.52957819    -0.25700
C3969       C  0.02586444  0.87378033  0.53211320    -0.14900
C3970       C  0.01085157  0.85100900  0.53412910     0.37400
N3971       N  0.02244725  0.82596412  0.53635596    -0.89100
H3972       H  0.97253327  0.83500091  0.53443481     0.18500
H3973       H  0.02459676  0.91519491  0.52791617     0.18500
N3974       N  0.97353140  0.92400158  0.52634260    -0.88200
H3975       H  0.03303606  0.82524744  0.55335033     0.35900
H3976       H  0.03502396  0.82323102  0.52093863     0.41000
H3977       H  0.96383396  0.92394971  0.50880077     0.40600
H3978       H  0.98720397  0.93885788  0.52540851     0.35500
C3979       C  0.89348310  0.86784078  0.91861712    -0.26200
C3980       C  0.87175141  0.87890980  0.93063202    -0.14300
C3981       C  0.85361090  0.89245977  0.91551827     0.36300
C3982       C  0.85745737  0.89450568  0.88905936    -0.25700
C3983       C  0.87893189  0.88303704  0.87720657    -0.14900
C3984       C  0.89719665  0.86978795  0.89221365     0.37400
N3985       N  0.91977106  0.85858687  0.88079783    -0.89100
H3986       H  0.90790630  0.85759772  0.92970737     0.18500
H3987       H  0.84311972  0.90452178  0.87764288     0.18500
N3988       N  0.83122343  0.90414026  0.92676470    -0.88200
H3989       H  0.91984346  0.83881617  0.88493516     0.35900
H3990       H  0.93606368  0.86686830  0.88934646     0.41000
H3991       H  0.81482895  0.89619312  0.91809481     0.40600
H3992       H  0.83160075  0.92390349  0.92261077     0.35500
C3993       C  0.88503096  0.89874243  0.64121013    -0.26200
C3994       C  0.87466977  0.87785401  0.62747870    -0.14300
C3995       C  0.86376647  0.85681241  0.64149200     0.36300
C3996       C  0.86384903  0.85719791  0.66816882    -0.25700
C3997       C  0.87478198  0.87771667  0.68169406    -0.14900
C3998       C  0.88531943  0.89889934  0.66794531     0.37400
N3999       N  0.89578456  0.92122599  0.68046799    -0.89100
H4000       H  0.89308885  0.91518441  0.63115666     0.18500
H4001       H  0.85571654  0.84091877  0.67844591     0.18500
N4002       N  0.85249989  0.83456669  0.62955481    -0.88200
H4003       H  0.91235730  0.91592266  0.69059432     0.35900
H4004       H  0.88197093  0.92854275  0.69315353     0.41000
H4005       H  0.86644922  0.82533314  0.61833514     0.40600
H4006       H  0.83676159  0.84032281  0.61838892     0.35500
C4007       C  0.84803396  0.98764138  0.50637210    -0.26200
C4008       C  0.87155057  0.97469972  0.51030128    -0.14300
C4009       C  0.89450083  0.98957028  0.00574947     0.36300
C4010       C  0.89377829  0.01462903  0.99551065    -0.25700
C4011       C  0.87018676  0.02709785  0.99053335    -0.14900
C4012       C  0.84731015  0.01281366  0.49636810     0.37400
N4013       N  0.82290080  0.02559291  0.49260683    -0.89100
H4014       H  0.83006038  0.97795886  0.51104638     0.18500
H4015       H  0.91181940  0.02467285  0.99198124     0.18500
N4016       N  0.91924573  0.97797372  0.01021737    -0.88200
H4017       H  0.80761976  0.01382313  0.49858367     0.35900
H4018       H  0.82120588  0.02917489  0.97066282     0.41000
H4019       H  0.91921608  0.95749451  0.49603688     0.40600
H4020       H  0.92094960  0.97386346  0.02970040     0.35500
C4021       C  0.60889137  0.76724720  0.84382270    -0.26200
C4022       C  0.63300073  0.77953213  0.84627849    -0.14300
C4023       C  0.65548476  0.76432166  0.84932789     0.36300
C4024       C  0.65332559  0.73717708  0.84943321    -0.25700
C4025       C  0.62917795  0.72502104  0.84692599    -0.14900
C4026       C  0.60673882  0.74032381  0.84429858     0.37400
N4027       N  0.58164533  0.72906158  0.84102364    -0.89100
H4028       H  0.59149686  0.77869383  0.84143913     0.18500
H4029       H  0.67056844  0.72541324  0.85128303     0.18500
N4030       N  0.68042232  0.77638694  0.85156660    -0.88200
H4031       H  0.57721302  0.71818142  0.85726428     0.35900
H4032       H  0.58216382  0.71676495  0.82516118     0.41000
H4033       H  0.68426851  0.78579590  0.83429253     0.40600
H4034       H  0.69488527  0.76245502  0.85387344     0.35500
C4035       C  0.51771990  0.89890780  0.83985150    -0.26200
C4036       C  0.53087068  0.87518418  0.83951820    -0.14300
C4037       C  0.51645360  0.85196462  0.83931783     0.36300
C4038       C  0.48939596  0.85297649  0.84004709    -0.25700
C4039       C  0.47622699  0.87672142  0.84038720    -0.14900
C4040       C  0.49055331  0.89995994  0.84009367     0.37400
N4041       N  0.47752465  0.92450970  0.84075939    -0.89100
H4042       H  0.52874466  0.91672228  0.84005414     0.18500
H4043       H  0.47855623  0.83504776  0.84028504     0.18500
N4044       N  0.52872117  0.82713316  0.83932399    -0.88200
H4045       H  0.49087739  0.93967492  0.84024491     0.35900
H4046       H  0.46794228  0.92588477  0.85831144     0.41000
H4047       H  0.54112311  0.82607907  0.85507477     0.40600
H4048       H  0.53964758  0.82529808  0.82262005     0.35500
C4049       C  0.61058656  0.98582777  0.87971837    -0.26200
C4050       C  0.63049996  0.97696843  0.86351878    -0.14300
C4051       C  0.65173101  0.99347799  0.85872578     0.36300
C4052       C  0.65218555  0.01834425  0.86973192    -0.25700
C4053       C  0.63222842  0.02713800  0.88593435    -0.14900
C4054       C  0.61127126  0.01046313  0.89091913     0.37400
N4055       N  0.59031496  0.01847847  0.90698561    -0.89100
H4056       H  0.59417550  0.97351331  0.88389279     0.18500
H4057       H  0.66846283  0.03087354  0.86571602     0.18500
N4058       N  0.67299627  0.98494269  0.84315227    -0.88200
H4059       H  0.58882688  0.00535395  0.92211049     0.35900
H4060       H  0.57323298  0.01751286  0.89633358     0.41000
H4061       H  0.68241032  0.97012624  0.85306104     0.40600
H4062       H  0.68658516  0.99972529  0.84087500     0.35500
C4063       C  0.73365707  0.88263390  0.79326962    -0.26200
C4064       C  0.72877505  0.87983777  0.81963091    -0.14300
C4065       C  0.74984376  0.87627894  0.83640601     0.36300
C4066       C  0.77521623  0.87595112  0.82651692    -0.25700
C4067       C  0.78002861  0.87867306  0.80017388    -0.14900
C4068       C  0.75889373  0.88185948  0.78341974     0.37400
N4069       N  0.76253325  0.88526757  0.75648856    -0.89100
H4070       H  0.71766820  0.88535060  0.78014225     0.18500
H4071       H  0.79141695  0.87370400  0.83947558     0.18500
N4072       N  0.74550078  0.87366975  0.86342637    -0.88200
H4073       H  0.77177153  0.86886661  0.74922972     0.35900
H4074       H  0.77455865  0.90125145  0.75363039     0.41000
H4075       H  0.73771234  0.89109885  0.87000823     0.40600
H4076       H  0.76301716  0.87109411  0.87307775     0.35500
C4077       C  0.62436787  0.74175604  0.61631415    -0.26200
C4078       C  0.62393644  0.72821201  0.59299067    -0.14300
C4079       C  0.62508046  0.74227689  0.56990272     0.36300
C4080       C  0.62638993  0.76932192  0.57045719    -0.25700
C4081       C  0.62710353  0.78284046  0.59366506    -0.14900
C4082       C  0.62617186  0.76897842  0.61688916     0.37400
N4083       N  0.62658904  0.78257350  0.64086236    -0.89100
H4084       H  0.62354577  0.73106289  0.63410121     0.18500
H4085       H  0.62699042  0.77985104  0.55254818     0.18500
N4086       N  0.62425714  0.72921798  0.54575573    -0.88200
H4087       H  0.62583605  0.76955698  0.65612940     0.35900
H4088       H  0.60977706  0.79375669  0.64191202     0.41000
H4089       H  0.64093031  0.73412996  0.53554554     0.40600
H4090       H  0.60827217  0.73608557  0.53557367     0.35500
C4091       C  0.48443131  0.89727754  0.60242730    -0.26200
C4092       C  0.47146892  0.87675920  0.59033941    -0.14300
C4093       C  0.48613065  0.85778834  0.57725189     0.36300
C4094       C  0.51320542  0.85986496  0.57664877    -0.25700
C4095       C  0.52609635  0.88001314  0.58930903    -0.14900
C4096       C  0.51145203  0.89919858  0.60203446     0.37400
N4097       N  0.52395154  0.92064599  0.61446253    -0.89100
H4098       H  0.47344522  0.91207260  0.61227674     0.18500
H4099       H  0.52435379  0.84506276  0.56698473     0.18500
N4100       N  0.47371392  0.83615931  0.56510179    -0.88200
H4101       H  0.51040516  0.93264552  0.62338389     0.35900
H4102       H  0.53284453  0.93177171  0.60028304     0.41000
H4103       H  0.46579930  0.82463299  0.57953576     0.40600
H4104       H  0.48724148  0.82462086  0.55557992     0.35500
C4105       C  0.62793618  0.90682440  0.97865252    -0.26200
C4106       C  0.63337476  0.88518163  0.99380029    -0.14300
C4107       C  0.64277632  0.86235207  0.98204938     0.36300
C4108       C  0.64495827  0.86119079  0.95524500    -0.25700
C4109       C  0.63775311  0.88227309  0.94007841    -0.14900
C4110       C  0.62982968  0.90548235  0.95194183     0.37400
N4111       N  0.62361170  0.92774277  0.93683859    -0.89100
H4112       H  0.62128959  0.92457409  0.98749287     0.18500
H4113       H  0.65131672  0.84348263  0.94612841     0.18500
N4114       N  0.64994178  0.84041232  0.99736371    -0.88200
H4115       H  0.63570856  0.94289095  0.94250109     0.35900
H4116       H  0.60454483  0.93308747  0.94088254     0.41000
H4117       H  0.65783677  0.84020797  0.50907635     0.40600
H4118       H  0.65624597  0.82517542  0.98579369     0.35500
C4119       C  0.63835964  0.90178655  0.70196354    -0.26200
C4120       C  0.63261391  0.87852892  0.68958091    -0.14300
C4121       C  0.62550741  0.85675975  0.70402426     0.36300
C4122       C  0.62419591  0.85863578  0.73065661    -0.25700
C4123       C  0.62993611  0.88195982  0.74345366    -0.14900
C4124       C  0.63751692  0.90374875  0.72875595     0.37400
N4125       N  0.64407690  0.92785085  0.74081511    -0.89100
H4126       H  0.64344286  0.91854992  0.69059535     0.18500
H4127       H  0.61857825  0.84161075  0.74135072     0.18500
N4128       N  0.61905710  0.83269465  0.69204814    -0.88200
H4129       H  0.64728454  0.94222525  0.72713010     0.35900
H4130       H  0.66175634  0.92520087  0.75015173     0.41000
H4131       H  0.63495458  0.82662389  0.68125171     0.40600
H4132       H  0.60354474  0.83580818  0.67960499     0.35500
C4133       C  0.64549784  0.99394619  0.61137725    -0.26200
C4134       C  0.62223968  0.98021954  0.61340801    -0.14300
C4135       C  0.60120426  0.99153982  0.62663896     0.36300
C4136       C  0.60409319  0.01613588  0.63779471    -0.25700
C4137       C  0.62747475  0.02981168  0.63594069    -0.14900
C4138       C  0.64851562  0.01836686  0.62275602     0.37400
N4139       N  0.67307992  0.03132045  0.62132388    -0.89100
H4140       H  0.66181213  0.98510690  0.60174724     0.18500
H4141       H  0.58776644  0.02491830  0.64745372     0.18500
N4142       N  0.57690606  0.97814730  0.62850332    -0.88200
H4143       H  0.68635684  0.02043514  0.61076221     0.35900
H4144       H  0.68042685  0.03254388  0.63991052     0.41000
H4145       H  0.56944161  0.97636819  0.61000781     0.40600
H4146       H  0.56352282  0.98902210  0.63894651     0.35500
C4147       C  0.74120569  0.87536943  0.58519271    -0.26200
C4148       C  0.72201897  0.88545073  0.56918393    -0.14300
C4149       C  0.72882224  0.89358445  0.54417867     0.36300
C4150       C  0.75465157  0.89146794  0.53593562    -0.25700
C4151       C  0.77381522  0.88102594  0.55186044    -0.14900
C4152       C  0.76699566  0.87333986  0.57704884     0.37400
N4153       N  0.78626172  0.86382403  0.59452399    -0.89100
H4154       H  0.73610381  0.86932033  0.60437284     0.18500
H4155       H  0.75970067  0.89744628  0.51672460     0.18500
N4156       N  0.70943133  0.90325969  0.52693318    -0.88200
H4157       H  0.77790758  0.85844236  0.61193112     0.35900
H4158       H  0.79885353  0.87909864  0.59858128     0.41000
H4159       H  0.69675620  0.88805416  0.52286606     0.40600
H4160       H  0.71770923  0.90871976  0.50951415     0.35500
loop_ 
_geom_bond_atom_site_label_1 
_geom_bond_atom_site_label_2 
_geom_bond_distance 
_geom_bond_site_symmetry_2 
_ccdc_geom_bond_type 
Zn1           O5   1.920       .  S
Zn1           O6   1.989       .  S
Zn1          O10   1.984       .  S
Zn1          O17   1.988       .  S
Zn2           O5   1.952       .  S
Zn2           O7   2.003       .  S
Zn2           O9   2.052       .  S
Zn2          O13   2.036       .  S
Zn3           O5   1.957       .  S
Zn3           O8   2.052       .  S
Zn3          O11   2.049       .  S
Zn3          O14   2.047       .  S
Zn4           O5   1.937       .  S
Zn4          O12   2.005       .  S
Zn4          O15   2.006       .  S
Zn4          O16   2.044       .  S
O6           C18   1.269       .  A
O7           C19   1.273       .  A
O8           C20   1.278       .  A
O9           C18   1.280       .  A
O10          C20   1.270       .  A
O11          C19   1.279       .  A
O12          C21   1.273       .  A
O13          C22   1.277       .  A
O14          C21   1.277       .  A
O15          C22   1.273       .  A
O16          C23   1.277       .  A
O17          C23   1.270       .  A
C18        C2054   1.494       .  S
C19        C2068   1.484       .  S
C20        C2040   1.473       .  S
C21        C2001   1.480       .  S
C22        C4106   1.480   1_554  S
C23        C2015   1.492       .  S
Zn24         O28   1.966       .  S
Zn24         O29   2.054       .  S
Zn24         O33   2.054       .  S
Zn24         O40   2.033       .  S
Zn25         O28   1.926       .  S
Zn25         O30   1.974       .  S
Zn25         O32   1.975       .  S
Zn25         O36   2.013       .  S
Zn26         O28   1.952       .  S
Zn26         O31   2.007       .  S
Zn26         O34   2.061       .  S
Zn26         O37   2.025       .  S
Zn27         O28   1.934       .  S
Zn27         O35   2.006       .  S
Zn27         O38   2.029       .  S
Zn27         O39   2.006       .  S
O29          C41   1.279       .  A
O30          C42   1.269       .  A
O31          C43   1.272       .  A
O32          C41   1.271       .  A
O33          C43   1.278       .  A
O34          C42   1.279       .  A
O35          C44   1.275       .  A
O36          C45   1.272       .  A
O37          C44   1.277       .  A
O38          C45   1.273       .  A
O39          C46   1.274       .  A
O40          C46   1.276       .  A
C41        C2029   1.472       .  S
C42        C1970   1.495       .  S
C43        C1984   1.481       .  S
C44        C2043   1.482       .  S
C45        C1956   1.483       .  S
C46        C1942   1.479       .  S
Zn47         O51   1.936       .  S
Zn47         O52   1.996       .  S
Zn47         O63   2.018       .  S
Zn47       O2136   1.982   1_554  S
Zn48         O51   1.960       .  S
Zn48         O53   2.050       .  S
Zn48         O55   2.032       .  S
Zn48         O59   2.063       .  S
Zn49         O51   1.951       .  S
Zn49         O57   2.003       .  S
Zn49         O60   2.056       .  S
Zn49       O2134   2.032   1_554  S
Zn50         O51   1.913       .  S
Zn50         O58   1.976       .  S
Zn50         O61   1.958       .  S
Zn50         O62   1.987       .  S
O52          C64   1.271       .  A
O53          C65   1.278       .  A
O54       Zn2129   2.023       .  S
O54          C66   1.277       .  A
O55          C64   1.276       .  A
O56       Zn2127   1.991       .  S
O56          C66   1.274       .  A
O57          C65   1.272       .  A
O58          C67   1.268       .  A
O59          C68   1.281       .  A
O60          C67   1.278       .  A
O61          C68   1.265       .  A
O62          C69   1.270       .  A
O63          C69   1.271       .  A
C64        C1886   1.473       .  S
C65        C1928   1.485       .  S
C66        C1900   1.483       .  S
C67        C2071   1.488       .  S
C68        C1914   1.491       .  S
C69        C1872   1.483       .  S
Zn70         O74   1.950       .  S
Zn70         O75   1.994       .  S
Zn70         O79   2.038       .  S
Zn70         O86   2.017       .  S
Zn71         O74   1.965       .  S
Zn71         O76   2.057       .  S
Zn71         O78   2.060       .  S
Zn71         O82   2.045       .  S
Zn72         O74   1.928       .  S
Zn72         O77   1.974       .  S
Zn72         O80   1.958       .  S
Zn72         O83   1.987       .  S
Zn73         O74   1.940       .  S
Zn73         O81   2.030       .  S
Zn73         O84   2.012       .  S
Zn73         O85   1.991       .  S
O75          C87   1.271       .  A
O76          C88   1.280       .  A
O77          C89   1.267       .  A
O78          C87   1.278       .  A
O79          C89   1.276       .  A
O80          C88   1.266       .  A
O81          C90   1.274       .  A
O82          C91   1.278       .  A
O83          C90   1.269       .  A
O84          C91   1.274       .  A
O85          C92   1.272       .  A
O86          C92   1.275       .  A
C87        C1987   1.486       .  S
C88        C1917   1.480       .  S
C89        C1858   1.482       .  S
C90        C1844   1.477       .  S
C91        C1830   1.486       .  S
C92        C1903   1.482       .  S
Zn93         O97   1.940       .  S
Zn93         O98   2.019       .  S
Zn93        O102   2.014       .  S
Zn93        O109   2.008       .  S
Zn94         O97   1.919       .  S
Zn94         O99   1.967       .  S
Zn94        O101   2.002       .  S
Zn94        O105   1.987       .  S
Zn95         O97   1.960       .  S
Zn95        O100   2.021       .  S
Zn95        O103   2.047       .  S
Zn95        O106   2.042       .  S
Zn96         O97   1.949       .  S
Zn96        O104   1.981       .  S
Zn96        O107   2.051       .  S
Zn96        O108   2.021       .  S
O98         C110   1.274       .  A
O99         C111   1.269       .  A
O100        C112   1.275       .  A
O101        C110   1.270       .  A
O102        C112   1.274       .  A
O103        C111   1.279       .  A
O104        C113   1.269       .  A
O105        C114   1.269       .  A
O106        C113   1.278       .  A
O107        C114   1.277       .  A
O108        C115   1.276       .  A
O109        C115   1.274       .  A
C110       C1774   1.481       .  S
C111       C1802   1.481       .  S
C112       C1760   1.479       .  S
C113       C1861   1.485       .  S
C114       C1816   1.475       .  S
C115       C1788   1.474       .  S
Zn116       O120   1.917       .  S
Zn116       O121   1.983       .  S
Zn116       O125   2.009       .  S
Zn116       O132   1.987       .  S
Zn117       O120   1.954       .  S
Zn117       O122   2.030       .  S
Zn117       O124   2.046       .  S
Zn117       O128   2.045       .  S
Zn118       O120   1.933       .  S
Zn118       O123   2.025       .  S
Zn118       O126   2.000       .  S
Zn118      O2209   2.001       .  S
Zn119       O120   1.945       .  S
Zn119       O130   1.997       .  S
Zn119       O131   2.052       .  S
Zn119      O2207   2.026       .  S
O121        C133   1.272       .  A
O122        C134   1.276       .  A
O123        C135   1.274       .  A
O124        C133   1.279       .  A
O125        C135   1.272       .  A
O126        C134   1.272       .  A
O127      Zn2199   2.026   1_554  S
O127        C136   1.277       .  A
O128        C137   1.278       .  A
O129      Zn2198   2.005   1_554  S
O129        C136   1.273       .  A
O130        C137   1.272       .  A
O131        C138   1.277       .  A
O132        C138   1.268       .  A
C133       C1791   1.479       .  S
C134       C1718   1.484       .  S
C135       C1732   1.473       .  S
C136       C1805   1.469       .  S
C137       C1931   1.482       .  S
C138       C1746   1.482       .  S
Zn139       O143   1.947       .  S
Zn139       O144   1.981       .  S
Zn139       O148   2.049       .  S
Zn139       O155   2.026       .  S
Zn140       O143   1.963       .  S
Zn140       O145   2.049       .  S
Zn140       O147   2.056       .  S
Zn140       O151   2.026       .  S
Zn141       O143   1.928       .  S
Zn141       O146   1.993       .  S
Zn141       O149   1.981       .  S
Zn141       O152   2.014       .  S
Zn142       O143   1.942       .  S
Zn142       O150   2.029       .  S
Zn142       O153   2.013       .  S
Zn142       O154   2.004       .  S
O144        C156   1.268       .  A
O145        C157   1.279       .  A
O146        C158   1.270       .  A
O147        C156   1.278       .  A
O148        C158   1.278       .  A
O149        C157   1.271       .  A
O150        C159   1.274       .  A
O151        C160   1.276       .  A
O152        C159   1.274       .  A
O153        C160   1.274       .  A
O154        C161   1.273       .  A
O155        C161   1.277       .  A
C156       C2057   1.497       .  S
C157       C1690   1.473       .  S
C158       C1819   1.491       .  S
C159       C1676   1.489       .  S
C160       C1662   1.483       .  S
C161       C1704   1.479       .  S
Zn162       O166   1.950       .  S
Zn162       O167   1.991       .  S
Zn162       O171   2.048       .  S
Zn162       O178   2.031       .  S
Zn163       O166   1.963       .  S
Zn163       O168   2.057       .  S
Zn163       O170   2.049       .  S
Zn163       O174   2.048       .  S
Zn164       O166   1.920       .  S
Zn164       O169   1.990       .  S
Zn164       O172   1.973       .  S
Zn164       O175   2.003       .  S
Zn165       O166   1.932       .  S
Zn165       O173   2.021       .  S
Zn165       O176   1.996       .  S
Zn165       O177   1.989       .  S
O167        C179   1.271       .  A
O168        C180   1.279       .  A
O169        C181   1.270       .  A
O170        C179   1.278       .  A
O171        C181   1.278       .  A
O172        C180   1.270       .  A
O173        C182   1.272       .  A
O174        C183   1.278       .  A
O175        C182   1.273       .  A
O176        C183   1.271       .  A
O177        C184   1.272       .  A
O178        C184   1.277       .  A
C179       C1973   1.496       .  S
C180       C3787   1.480       .  S
C181       C1749   1.485       .  S
C182       C1648   1.484       .  S
C183       C1634   1.492       .  S
C184       C1693   1.478       .  S
Zn185       O189   1.923       .  S
Zn185       O194   1.981       .  S
Zn185       O201   1.993       .  S
Zn185      O2270   1.961   1_554  S
Zn186       O189   1.960       .  S
Zn186       O191   2.061       .  S
Zn186       O197   2.054       .  S
Zn186      O2273   2.061   1_554  S
Zn187       O189   1.951       .  S
Zn187       O192   2.039       .  S
Zn187       O195   1.994       .  S
Zn187       O198   2.008       .  S
Zn188       O189   1.930       .  S
Zn188       O196   1.987       .  S
Zn188       O199   2.004       .  S
Zn188       O200   2.026       .  S
O190      Zn2265   1.973       .  S
O190        C202   1.270       .  A
O191        C203   1.280       .  A
O192        C204   1.276       .  A
O193      Zn2266   2.060       .  S
O193        C202   1.282       .  A
O194        C204   1.268       .  A
O195        C203   1.270       .  A
O196        C205   1.271       .  A
O197        C206   1.278       .  A
O198        C205   1.275       .  A
O199        C206   1.272       .  A
O200        C207   1.273       .  A
O201        C207   1.270       .  A
C202       C1578   1.487       .  S
C203       C1623   1.492       .  S
C204       C1609   1.483       .  S
C205       C1595   1.481       .  S
C206       C1564   1.494       .  S
C207       C1889   1.477       .  S
Zn208       O212   1.958       .  S
Zn208       O213   2.020       .  S
Zn208       O217   2.039       .  S
Zn208       O224   2.008       .  S
Zn209       O212   1.933       .  S
Zn209       O214   2.010       .  S
Zn209       O216   1.974       .  S
Zn209       O220   1.982       .  S
Zn210       O212   1.924       .  S
Zn210       O215   1.979       .  S
Zn210       O218   2.001       .  S
Zn210       O221   1.974       .  S
Zn211       O212   1.956       .  S
Zn211       O219   2.051       .  S
Zn211       O222   2.045       .  S
Zn211       O223   2.053       .  S
O213        C225   1.274       .  A
O214        C226   1.271       .  A
O215        C227   1.268       .  A
O216        C225   1.271       .  A
O217        C227   1.275       .  A
O218        C226   1.272       .  A
O219        C228   1.280       .  A
O220        C229   1.269       .  A
O221        C228   1.270       .  A
O222        C229   1.277       .  A
O223        C230   1.280       .  A
O224        C230   1.273       .  A
C225       C1592   1.480       .  S
C226       C1522   1.476       .  S
C227       C1550   1.471       .  S
C228       C1581   1.484       .  S
C229       C1847   1.478       .  S
C230       C1536   1.492       .  S
Zn231       O235   1.942       .  S
Zn231       O236   2.015       .  S
Zn231       O240   2.022       .  S
Zn231       O247   1.998       .  S
Zn232       O235   1.959       .  S
Zn232       O237   2.048       .  S
Zn232       O239   2.037       .  S
Zn232       O243   2.060       .  S
Zn233       O235   1.927       .  S
Zn233       O238   2.005       .  S
Zn233       O241   1.971       .  S
Zn233       O244   1.987       .  S
Zn234       O235   1.947       .  S
Zn234       O242   2.046       .  S
Zn234       O245   1.994       .  S
Zn234       O246   2.022       .  S
O236        C248   1.274       .  A
O237        C249   1.279       .  A
O238        C250   1.273       .  A
O239        C248   1.276       .  A
O240        C250   1.272       .  A
O241        C249   1.270       .  A
O242        C251   1.275       .  A
O243        C252   1.278       .  A
O244        C251   1.268       .  A
O245        C252   1.270       .  A
O246        C253   1.277       .  A
O247        C253   1.273       .  A
C248       C1466   1.478       .  S
C249       C1494   1.489       .  S
C250       C2012   1.494       .  S
C251       C1508   1.470       .  S
C252       C1620   1.476       .  S
C253       C3560   1.481   1_554  S
Zn254       O258   1.947       .  S
Zn254       O259   2.015       .  S
Zn254       O263   2.033       .  S
Zn254       O270   2.000       .  S
Zn255       O258   1.943       .  S
Zn255       O260   2.040       .  S
Zn255       O262   2.010       .  S
Zn255       O266   2.027       .  S
Zn256       O258   1.924       .  S
Zn256       O261   1.985       .  S
Zn256       O264   1.996       .  S
Zn256       O267   1.958       .  S
Zn257       O258   1.961       .  S
Zn257       O265   2.054       .  S
Zn257       O268   2.026       .  S
Zn257       O269   2.053       .  S
O259        C271   1.276       .  A
O260        C272   1.274       .  A
O261        C273   1.269       .  A
O262        C271   1.276       .  A
O263        C273   1.274       .  A
O264        C272   1.271       .  A
O265        C274   1.280       .  A
O266        C275   1.276       .  A
O267        C274   1.268       .  A
O268        C275   1.275       .  A
O269        C276   1.278       .  A
O270        C276   1.271       .  A
C271       C1483   1.485       .  S
C272       C1438   1.477       .  S
C273       C1553   1.483       .  S
C274       C1497   1.476       .  S
C275       C1959   1.480       .  S
C276       C1452   1.485       .  S
Zn277       O281   1.951       .  S
Zn277       O282   2.062       .  S
Zn277       O286   2.008       .  S
Zn277       O293   2.025       .  S
Zn278       O281   1.920       .  S
Zn278       O283   1.966       .  S
Zn278       O285   1.975       .  S
Zn278       O289   2.004       .  S
Zn279       O281   1.954       .  S
Zn279       O284   2.036       .  S
Zn279       O287   2.034       .  S
Zn279       O290   2.026       .  S
Zn280       O281   1.931       .  S
Zn280       O288   1.993       .  S
Zn280       O291   2.012       .  S
Zn280       O292   1.985       .  S
O282        C294   1.278       .  A
O283        C295   1.270       .  A
O284        C296   1.276       .  A
O285        C294   1.269       .  A
O286        C296   1.272       .  A
O287        C295   1.277       .  A
O288        C297   1.271       .  A
O289        C298   1.271       .  A
O290        C297   1.274       .  A
O291        C298   1.271       .  A
O292        C299   1.271       .  A
O293        C299   1.278       .  A
C294       C1511   1.496       .  S
C295       C1410   1.485       .  S
C296       C1424   1.478       .  S
C297       C1385   1.474       .  S
C298       C1665   1.472       .  S
C299       C1396   1.478       .  S
Zn300       O304   1.923       .  S
Zn300       O305   2.004       .  S
Zn300       O309   1.965       .  S
Zn300       O316   1.979       .  S
Zn301       O304   1.934       .  S
Zn301       O306   2.007       .  S
Zn301       O308   2.032       .  S
Zn301       O312   2.008       .  S
Zn302       O304   1.955       .  S
Zn302       O307   2.051       .  S
Zn302       O310   2.032       .  S
Zn302       O313   2.052       .  S
Zn303       O304   1.948       .  S
Zn303       O311   2.004       .  S
Zn303       O314   2.001       .  S
Zn303       O315   2.031       .  S
O305        C317   1.272       .  A
O306        C318   1.274       .  A
O307        C319   1.280       .  A
O308        C317   1.274       .  A
O309        C319   1.270       .  A
O310        C318   1.274       .  A
O311        C320   1.272       .  A
O312        C321   1.276       .  A
O313        C320   1.278       .  A
O314        C321   1.273       .  A
O315        C322   1.274       .  A
O316        C322   1.268       .  A
C317       C1357   1.479       .  S
C318       C1637   1.490       .  S
C319       C3493   1.479       .  S
C320       C1455   1.486       .  S
C321       C1399   1.487       .  S
C322       C1368   1.469       .  S
Zn323       O327   1.925       .  S
Zn323       O328   2.005       .  S
Zn323       O332   1.972       .  S
Zn323       O339   1.991       .  S
Zn324       O327   1.936       .  S
Zn324       O329   2.001       .  S
Zn324       O331   2.019       .  S
Zn324       O335   1.993       .  S
Zn325       O327   1.966       .  S
Zn325       O330   2.050       .  S
Zn325       O333   2.049       .  S
Zn325       O336   2.056       .  S
Zn326       O327   1.949       .  S
Zn326       O334   1.995       .  S
Zn326       O337   2.024       .  S
Zn326       O338   2.060       .  S
O328        C340   1.271       .  A
O329        C341   1.271       .  A
O330        C342   1.280       .  A
O331        C340   1.272       .  A
O332        C342   1.271       .  A
O333        C341   1.278       .  A
O334        C343   1.272       .  A
O335        C344   1.271       .  A
O336        C343   1.279       .  A
O337        C344   1.277       .  A
O338        C345   1.278       .  A
O339        C345   1.269       .  A
C340       C1763   1.475       .  S
C341       C1312   1.497       .  S
C342       C1326   1.490       .  S
C343       C1427   1.484       .  S
C344       C1340   1.483       .  S
C345       C1539   1.491       .  S
Zn346       O350   1.935       .  S
Zn346       O351   2.004       .  S
Zn346       O355   2.013       .  S
Zn346      O2442   1.996       .  S
Zn347       O350   1.953       .  S
Zn347       O352   2.047       .  S
Zn347       O354   2.024       .  S
Zn347       O358   2.038       .  S
Zn348       O350   1.916       .  S
Zn348       O353   1.981       .  S
Zn348       O356   1.962       .  S
Zn348       O359   1.973       .  S
Zn349       O350   1.948       .  S
Zn349       O357   2.036       .  S
Zn349       O360   1.985       .  S
Zn349      O2441   2.013       .  S
O351        C363   1.273       .  A
O352        C364   1.279       .  A
O353        C365   1.271       .  A
O354        C363   1.274       .  A
O355        C365   1.272       .  A
O356        C364   1.268       .  A
O357        C366   1.274       .  A
O358        C367   1.278       .  A
O359        C366   1.268       .  A
O360        C367   1.271       .  A
O361      Zn2429   2.020   1_554  S
O361        C368   1.274       .  A
O362      Zn2426   1.996   1_554  S
O362        C368   1.273       .  A
C363       C1721   1.484       .  S
C364       C1329   1.473       .  S
C365       C1298   1.480       .  S
C366       C1371   1.479       .  S
C367       C1606   1.485       .  S
C368       C1343   1.489       .  S
Zn369       O373   1.953       .  S
Zn369       O374   2.060       .  S
Zn369       O378   1.998       .  S
Zn369       O385   2.030       .  S
Zn370       O373   1.930       .  S
Zn370       O375   1.982       .  S
Zn370       O377   1.978       .  S
Zn370       O381   2.005       .  S
Zn371       O373   1.964       .  S
Zn371       O376   2.057       .  S
Zn371       O379   2.049       .  S
Zn371       O382   2.031       .  S
Zn372       O373   1.937       .  S
Zn372       O380   1.998       .  S
Zn372       O383   2.010       .  S
Zn372       O384   1.990       .  S
O374        C386   1.279       .  A
O375        C387   1.271       .  A
O376        C388   1.278       .  A
O377        C386   1.269       .  A
O378        C388   1.271       .  A
O379        C387   1.279       .  A
O380        C389   1.271       .  A
O381        C390   1.272       .  A
O382        C389   1.275       .  A
O383        C390   1.271       .  A
O384        C391   1.273       .  A
O385        C391   1.277       .  A
C386       C1284   1.494       .  S
C387       C1242   1.472       .  S
C388       C1270   1.479       .  S
C389       C1777   1.473       .  S
C390       C1228   1.481       .  S
C391       C1256   1.478       .  S
Zn392       O396   1.941       .  S
Zn392       O397   2.037       .  S
Zn392       O401   1.994       .  S
Zn392       O408   2.025       .  S
Zn393       O396   1.922       .  S
Zn393       O400   2.000       .  S
Zn393       O404   2.003       .  S
Zn393      O2478   1.988       .  S
Zn394       O396   1.950       .  S
Zn394       O399   2.037       .  S
Zn394       O405   2.036       .  S
Zn394      O2482   2.041       .  S
Zn395       O396   1.932       .  S
Zn395       O403   2.011       .  S
Zn395       O406   2.021       .  S
Zn395       O407   2.008       .  S
O397        C409   1.277       .  A
O398      Zn2473   1.991   1_554  S
O398        C410   1.273       .  A
O399        C411   1.278       .  A
O400        C409   1.271       .  A
O401        C411   1.269       .  A
O402      Zn2474   2.040   1_554  S
O402        C410   1.277       .  A
O403        C412   1.274       .  A
O404        C413   1.273       .  A
O405        C412   1.277       .  A
O406        C413   1.273       .  A
O407        C414   1.275       .  A
O408        C414   1.277       .  A
C409       C1214   1.492       .  S
C410       C1259   1.473       .  S
C411       C1200   1.493       .  S
C412       C1735   1.486       .  S
C413       C1186   1.484       .  S
C414       C1245   1.484       .  S
Zn415       O419   1.910       .  S
Zn415       O420   1.986       .  S
Zn415       O424   1.989       .  S
Zn415       O431   1.981       .  S
Zn416       O419   1.946       .  S
Zn416       O421   2.027       .  S
Zn416       O423   2.046       .  S
Zn416       O427   2.026       .  S
Zn417       O419   1.945       .  S
Zn417       O422   2.059       .  S
Zn417       O425   2.008       .  S
Zn417      O2508   2.029   1_554  S
Zn418       O419   1.936       .  S
Zn418       O429   2.003       .  S
Zn418       O430   2.027       .  S
Zn418      O2506   2.007   1_554  S
O420        C432   1.271       .  A
O421        C433   1.277       .  A
O422        C434   1.279       .  A
O423        C432   1.278       .  A
O424        C434   1.269       .  A
O425        C433   1.273       .  A
O426      Zn2498   1.996       .  S
O426        C435   1.272       .  A
O427        C436   1.274       .  A
O428      Zn2497   2.018       .  S
O428        C435   1.275       .  A
O429        C436   1.272       .  A
O430        C437   1.274       .  A
O431        C437   1.270       .  A
C432       C1158   1.473       .  S
C433       C1217   1.490       .  S
C434       C1175   1.486       .  S
C435       C1144   1.468       .  S
C436       C1130   1.473       .  S
C437       C1875   1.483       .  S
Zn438       O442   1.925       .  S
Zn438       O443   1.973       .  S
Zn438       O447   1.981       .  S
Zn438       O454   2.008       .  S
Zn439       O442   1.967       .  S
Zn439       O444   2.054       .  S
Zn439       O446   2.047       .  S
Zn439       O450   2.026       .  S
Zn440       O442   1.948       .  S
Zn440       O445   2.033       .  S
Zn440       O448   1.986       .  S
Zn440       O451   2.007       .  S
Zn441       O442   1.940       .  S
Zn441       O449   2.022       .  S
Zn441       O452   2.007       .  S
Zn441       O453   2.034       .  S
O443        C455   1.271       .  A
O444        C456   1.278       .  A
O445        C457   1.275       .  A
O446        C455   1.279       .  A
O447        C457   1.269       .  A
O448        C456   1.270       .  A
O449        C458   1.276       .  A
O450        C459   1.273       .  A
O451        C458   1.274       .  A
O452        C459   1.275       .  A
O453        C460   1.275       .  A
O454        C460   1.271       .  A
C455       C1147   1.477       .  S
C456       C1287   1.495       .  S
C457       C1116   1.475       .  S
C458       C1161   1.482       .  S
C459       C1102   1.493       .  S
C460       C1833   1.479       .  S
Zn461       O465   1.944       .  S
Zn461       O466   2.044       .  S
Zn461       O470   2.019       .  S
Zn461       O477   2.022       .  S
Zn462       O465   1.925       .  S
Zn462       O467   1.993       .  S
Zn462       O469   2.004       .  S
Zn462       O473   1.966       .  S
Zn463       O465   1.951       .  S
Zn463       O468   2.022       .  S
Zn463       O471   2.047       .  S
Zn463       O474   2.000       .  S
Zn464       O465   1.966       .  S
Zn464       O472   2.048       .  S
Zn464       O475   2.057       .  S
Zn464       O476   2.044       .  S
O466        C478   1.275       .  A
O467        C479   1.270       .  A
O468        C480   1.276       .  A
O469        C478   1.272       .  A
O470        C480   1.275       .  A
O471        C479   1.277       .  A
O472        C481   1.278       .  A
O473        C482   1.269       .  A
O474        C481   1.271       .  A
O475        C482   1.279       .  A
O476        C483   1.278       .  A
O477        C483   1.275       .  A
C478       C1998   1.485       .  S
C479       C1172   1.484       .  S
C480       C1077   1.482       .  S
C481       C1088   1.488       .  S
C482       C3143   1.475   1_554  S
C483       C1046   1.499       .  S
Zn484       O488   1.924       .  S
Zn484       O489   1.993       .  S
Zn484       O493   1.978       .  S
Zn484       O500   2.008       .  S
Zn485       O488   1.955       .  S
Zn485       O490   2.065       .  S
Zn485       O492   2.058       .  S
Zn485       O496   2.023       .  S
Zn486       O488   1.953       .  S
Zn486       O491   2.048       .  S
Zn486       O494   2.001       .  S
Zn486       O497   2.045       .  S
Zn487       O488   1.930       .  S
Zn487       O495   1.984       .  S
Zn487       O498   1.996       .  S
Zn487       O499   2.028       .  S
O489        C501   1.272       .  A
O490        C502   1.279       .  A
O491        C503   1.279       .  A
O492        C501   1.281       .  A
O493        C503   1.269       .  A
O494        C502   1.272       .  A
O495        C504   1.271       .  A
O496        C505   1.275       .  A
O497        C504   1.278       .  A
O498        C505   1.272       .  A
O499        C506   1.274       .  A
O500        C506   1.271       .  A
C501       C1074   1.479       .  S
C502       C1032   1.489       .  S
C503       C1119   1.481       .  S
C504       C1060   1.482       .  S
C505       C1018   1.472       .  S
C506       C1945   1.479       .  S
Zn507       O511   1.952       .  S
Zn507       O512   2.022       .  S
Zn507       O516   2.049       .  S
Zn507       O523   2.000       .  S
Zn508       O511   1.936       .  S
Zn508       O513   2.031       .  S
Zn508       O515   1.994       .  S
Zn508       O519   2.012       .  S
Zn509       O511   1.926       .  S
Zn509       O514   1.991       .  S
Zn509       O517   1.998       .  S
Zn509       O520   1.973       .  S
Zn510       O511   1.961       .  S
Zn510       O518   2.045       .  S
Zn510       O521   2.037       .  S
Zn510       O522   2.059       .  S
O512        C524   1.275       .  A
O513        C525   1.274       .  A
O514        C526   1.270       .  A
O515        C524   1.274       .  A
O516        C526   1.278       .  A
O517        C525   1.271       .  A
O518        C527   1.279       .  A
O519        C528   1.273       .  A
O520        C527   1.270       .  A
O521        C528   1.275       .  A
O522        C529   1.279       .  A
O523        C529   1.272       .  A
C524        C990   1.488       .  S
C525        C976   1.475       .  S
C526       C1091   1.487       .  S
C527       C1007   1.487       .  S
C528       C1679   1.476       .  S
C529       C1273   1.487       .  S
Zn530       O534   1.918       .  S
Zn530       O535   1.976       .  S
Zn530       O539   1.996       .  S
Zn530       O546   1.964       .  S
Zn531       O534   1.948       .  S
Zn531       O536   2.029       .  S
Zn531       O538   2.047       .  S
Zn531       O542   2.003       .  S
Zn532       O534   1.930       .  S
Zn532       O537   2.023       .  S
Zn532       O540   1.977       .  S
Zn532       O543   1.982       .  S
Zn533       O534   1.962       .  S
Zn533       O541   2.035       .  S
Zn533       O544   2.073       .  S
Zn533       O545   2.052       .  S
O535        C547   1.267       .  A
O536        C548   1.277       .  A
O537        C549   1.272       .  A
O538        C547   1.278       .  A
O539        C549   1.270       .  A
O540        C548   1.271       .  A
O541        C550   1.276       .  A
O542        C551   1.272       .  A
O543        C550   1.271       .  A
O544        C551   1.280       .  A
O545        C552   1.280       .  A
O546        C552   1.269       .  A
C547       C1203   1.490       .  S
C548        C993   1.474       .  S
C549       C1651   1.485       .  S
C550        C962   1.474       .  S
C551       C1035   1.492       .  S
C552       C3084   1.485       .  S
Zn553       O557   1.931       .  S
Zn553       O558   1.997       .  S
Zn553       O562   2.017       .  S
Zn553       O569   2.020       .  S
Zn554       O557   1.947       .  S
Zn554       O559   2.029       .  S
Zn554       O561   2.013       .  S
Zn554       O565   1.979       .  S
Zn555       O557   1.926       .  S
Zn555       O560   2.007       .  S
Zn555       O563   2.000       .  S
Zn555      O2646   1.987   1_554  S
Zn556       O557   1.952       .  S
Zn556       O567   2.052       .  S
Zn556       O568   2.039       .  S
Zn556      O2644   2.048   1_554  S
O558        C570   1.274       .  A
O559        C571   1.275       .  A
O560        C572   1.273       .  A
O561        C570   1.274       .  A
O562        C572   1.274       .  A
O563        C571   1.271       .  A
O564      Zn2636   2.036       .  S
O564        C573   1.278       .  A
O565        C574   1.268       .  A
O566      Zn2635   1.968       .  S
O566        C573   1.271       .  A
O567        C574   1.280       .  A
O568        C575   1.275       .  A
O569        C575   1.275       .  A
C570        C923   1.478       .  S
C571        C948   1.486       .  S
C572       C1133   1.478       .  S
C573        C906   1.478       .  S
C574        C937   1.484       .  S
C575       C1567   1.494       .  S
Zn576       O580   1.960       .  S
Zn576       O581   2.049       .  S
Zn576       O585   2.045       .  S
Zn576       O592   2.032       .  S
Zn577       O580   1.947       .  S
Zn577       O582   2.029       .  S
Zn577       O584   1.991       .  S
Zn577       O588   2.048       .  S
Zn578       O580   1.924       .  S
Zn578       O583   1.981       .  S
Zn578       O586   1.983       .  S
Zn578       O589   2.013       .  S
Zn579       O580   1.920       .  S
Zn579       O587   1.989       .  S
Zn579       O590   1.986       .  S
Zn579       O591   1.971       .  S
O581        C593   1.279       .  A
O582        C594   1.277       .  A
O583        C595   1.268       .  A
O584        C593   1.272       .  A
O585        C595   1.276       .  A
O586        C594   1.270       .  A
O587        C596   1.271       .  A
O588        C597   1.277       .  A
O589        C596   1.271       .  A
O590        C597   1.270       .  A
O591        C598   1.270       .  A
O592        C598   1.278       .  A
C593        C892   1.485       .  S
C594        C920   1.487       .  S
C595       C1105   1.493       .  S
C596       C1525   1.475       .  S
C597        C878   1.493       .  S
C598        C909   1.481       .  S
Zn599       O603   1.928       .  S
Zn599       O604   1.997       .  S
Zn599       O608   2.027       .  S
Zn599       O615   2.012       .  S
Zn600       O603   1.948       .  S
Zn600       O605   2.046       .  S
Zn600       O607   2.022       .  S
Zn600       O611   1.988       .  S
Zn601       O603   1.915       .  S
Zn601       O606   1.993       .  S
Zn601       O609   1.982       .  S
Zn601       O612   1.976       .  S
Zn602       O603   1.945       .  S
Zn602       O610   2.038       .  S
Zn602       O613   2.031       .  S
Zn602       O614   2.034       .  S
O604        C616   1.273       .  A
O605        C617   1.277       .  A
O606        C618   1.272       .  A
O607        C616   1.277       .  A
O608        C618   1.275       .  A
O609        C617   1.269       .  A
O610        C619   1.278       .  A
O611        C620   1.270       .  A
O612        C619   1.270       .  A
O613        C620   1.277       .  A
O614        C621   1.275       .  A
O615        C621   1.275       .  A
C616        C850   1.486       .  S
C617        C895   1.487       .  S
C618       C1231   1.481       .  S
C619        C836   1.480       .  S
C620        C864   1.481       .  S
C621       C1315   1.497       .  S
Zn622       O626   1.920       .  S
Zn622       O627   1.974       .  S
Zn622       O631   1.984       .  S
Zn622       O638   1.981       .  S
Zn623       O626   1.954       .  S
Zn623       O628   2.032       .  S
Zn623       O630   2.045       .  S
Zn623       O634   2.036       .  S
Zn624       O626   1.935       .  S
Zn624       O629   2.012       .  S
Zn624       O632   1.997       .  S
Zn624      O2715   1.990       .  S
Zn625       O626   1.952       .  S
Zn625       O636   2.004       .  S
Zn625       O637   2.048       .  S
Zn625      O2713   2.026       .  S
O627        C639   1.269       .  A
O628        C640   1.275       .  A
O629        C641   1.273       .  A
O630        C639   1.278       .  A
O631        C641   1.270       .  A
O632        C640   1.272       .  A
O633      Zn2705   2.022   1_554  S
O633        C642   1.275       .  A
O634        C643   1.277       .  A
O635      Zn2704   1.983   1_554  S
O635        C642   1.272       .  A
O636        C643   1.274       .  A
O637        C644   1.278       .  A
O638        C644   1.269       .  A
C639        C839   1.483       .  S
C640       C1189   1.473       .  S
C641       C1301   1.479       .  S
C642        C853   1.476       .  S
C643        C951   1.491       .  S
C644        C825   1.492       .  S
Zn645       O649   1.936       .  S
Zn645       O650   2.031       .  S
Zn645       O654   2.010       .  S
Zn645       O661   1.996       .  S
Zn646       O649   1.920       .  S
Zn646       O651   1.969       .  S
Zn646       O653   1.986       .  S
Zn646       O657   1.968       .  S
Zn647       O649   1.954       .  S
Zn647       O652   2.023       .  S
Zn647       O655   2.040       .  S
Zn647       O658   2.048       .  S
Zn648       O649   1.950       .  S
Zn648       O656   1.996       .  S
Zn648       O659   2.044       .  S
Zn648       O660   2.019       .  S
O650        C662   1.274       .  A
O651        C663   1.270       .  A
O652        C664   1.275       .  A
O653        C662   1.268       .  A
O654        C664   1.274       .  A
O655        C663   1.278       .  A
O656        C665   1.271       .  A
O657        C666   1.267       .  A
O658        C665   1.277       .  A
O659        C666   1.277       .  A
O660        C667   1.276       .  A
O661        C667   1.274       .  A
C662       C1382   1.474       .  S
C663        C780   1.484       .  S
C664        C979   1.482       .  S
C665        C808   1.485       .  S
C666        C867   1.485       .  S
C667        C794   1.488       .  S
Zn668       O672   1.942       .  S
Zn668       O673   2.023       .  S
Zn668       O677   2.019       .  S
Zn668       O684   1.998       .  S
Zn669       O672   1.925       .  S
Zn669       O674   1.972       .  S
Zn669       O676   1.987       .  S
Zn669       O680   1.983       .  S
Zn670       O672   1.955       .  S
Zn670       O675   2.022       .  S
Zn670       O678   2.043       .  S
Zn670       O681   2.040       .  S
Zn671       O672   1.946       .  S
Zn671       O679   1.987       .  S
Zn671       O682   2.030       .  S
Zn671       O683   2.010       .  S
O673        C685   1.273       .  A
O674        C686   1.270       .  A
O675        C687   1.275       .  A
O676        C685   1.269       .  A
O677        C687   1.275       .  A
O678        C686   1.278       .  A
O679        C688   1.270       .  A
O680        C689   1.268       .  A
O681        C688   1.276       .  A
O682        C689   1.274       .  A
O683        C690   1.275       .  A
O684        C690   1.274       .  A
C685        C965   1.475       .  S
C686        C783   1.484       .  S
C687       C1354   1.479       .  S
C688        C822   1.490       .  S
C689        C766   1.474       .  S
C690       C2877   1.474       .  S
Zn691       O695   1.954       .  S
Zn691       O696   2.023       .  S
Zn691       O700   2.000       .  S
Zn691       O707   2.051       .  S
Zn692       O695   1.936       .  S
Zn692       O697   2.015       .  S
Zn692       O699   2.001       .  S
Zn692       O703   2.033       .  S
Zn693       O695   1.961       .  S
Zn693       O698   2.054       .  S
Zn693       O701   2.034       .  S
Zn693       O704   2.041       .  S
Zn694       O695   1.929       .  S
Zn694       O702   1.976       .  S
Zn694       O705   2.007       .  S
Zn694       O706   1.977       .  S
O696        C708   1.276       .  A
O697        C709   1.275       .  A
O698        C710   1.278       .  A
O699        C708   1.275       .  A
O700        C710   1.272       .  A
O701        C709   1.274       .  A
O702        C711   1.271       .  A
O703        C712   1.275       .  A
O704        C711   1.280       .  A
O705        C712   1.272       .  A
O706        C713   1.267       .  A
O707        C713   1.277       .  A
C708        C752   1.489       .  S
C709       C1049   1.497       .  S
C710        C811   1.483       .  S
C711       C2818   1.476   1_554  S
C712       C1469   1.484       .  S
C713        C934   1.483       .  S
Zn714       O718   1.958       .  S
Zn714       O719   2.048       .  S
Zn714       O723   2.054       .  S
Zn714       O730   2.040       .  S
Zn715       O718   1.925       .  S
Zn715       O720   1.985       .  S
Zn715       O722   1.975       .  S
Zn715       O726   2.000       .  S
Zn716       O718   1.949       .  S
Zn716       O721   1.992       .  S
Zn716       O724   2.037       .  S
Zn716       O727   2.024       .  S
Zn717       O718   1.930       .  S
Zn717       O725   1.990       .  S
Zn717       O728   2.017       .  S
Zn717       O729   2.003       .  S
O719        C731   1.280       .  A
O720        C732   1.270       .  A
O721        C733   1.272       .  A
O722        C731   1.270       .  A
O723        C733   1.278       .  A
O724        C732   1.275       .  A
O725        C734   1.271       .  A
O726        C735   1.271       .  A
O727        C734   1.276       .  A
O728        C735   1.272       .  A
O729        C736   1.273       .  A
O730        C736   1.276       .  A
C731        C741   1.485       .  S
C732        C769   1.476       .  S
C733        C881   1.497       .  S
C734        C755   1.482       .  S
C735       C1021   1.477       .  S
C736       C1441   1.483       .  S
C737        C738   1.400       .  A
C737        C742   1.400       .  A
C737        H744   1.084       .  S
C738       C2791   1.484       .  S
C738        C739   1.420       .  A
C739        C740   1.406       .  A
C739        N746   1.439       .  S
C740        C741   1.401       .  A
C740        H745   1.083       .  S
C741        C742   1.417       .  A
C742        N743   1.433       .  S
N743        H747   1.046       .  S
N743        H748   1.046       .  S
N746        H750   1.046       .  S
N746       H2829   1.046       .  S
H749       N2826   1.046   1_554  S
C751        C752   1.407       .  A
C751        C756   1.395       .  A
C751        H758   1.084       .  S
C752        C753   1.420       .  A
C753        C754   1.400       .  A
C753        N760   1.432       .  S
C754        C755   1.405       .  A
C754        H759   1.084       .  S
C755        C756   1.416       .  A
C756        N757   1.434       .  S
N757        H761   1.046       .  S
N757        H762   1.044       .  S
N760        H763   1.045       .  S
N760        H764   1.045       .  S
C765        C766   1.403       .  A
C765        C770   1.400       .  A
C765        H772   1.084       .  S
C766        C767   1.411       .  A
C767        C768   1.403       .  A
C767        N774   1.438       .  S
C768        C769   1.404       .  A
C768        H773   1.084       .  S
C769        C770   1.414       .  A
C770        N771   1.432       .  S
N771        H775   1.045       .  S
N771        H776   1.045       .  S
N774        H777   1.046       .  S
N774        H778   1.046       .  S
C779        C780   1.410       .  A
C779        C784   1.404       .  A
C779        H786   1.083       .  S
C780        C781   1.410       .  A
C781        C782   1.402       .  A
C781        N788   1.438       .  S
C782        C783   1.409       .  A
C782        H787   1.083       .  S
C783        C784   1.410       .  A
C784        N785   1.438       .  S
N785        H789   1.046       .  S
N785        H790   1.045       .  S
N788        H791   1.046       .  S
N788        H792   1.046       .  S
C793        C794   1.409       .  A
C793        C798   1.401       .  A
C793        H800   1.083       .  S
C794        C795   1.417       .  A
C795        C796   1.406       .  A
C795        N802   1.438       .  S
C796        C797   1.403       .  A
C796        H801   1.084       .  S
C797       C2770   1.474   1_554  S
C797        C798   1.408       .  A
C798        N799   1.439       .  S
N799        H803   1.046       .  S
N799       H2884   1.046   1_554  S
N802        H805   1.046       .  S
N802        H806   1.046       .  S
H804       N2879   1.046       .  S
C807        C808   1.404       .  A
C807        C812   1.404       .  A
C807        H814   1.084       .  S
C808        C809   1.417       .  A
C809        C810   1.405       .  A
C809        N816   1.432       .  S
C810        C811   1.405       .  A
C810        H815   1.084       .  S
C811        C812   1.412       .  A
C812        N813   1.438       .  S
N813        H817   1.046       .  S
N813        H818   1.046       .  S
N816        H819   1.046       .  S
N816        H820   1.045       .  S
C821        C822   1.410       .  A
C821        C826   1.406       .  A
C821        H828   1.083       .  S
C822        C823   1.411       .  A
C823        C824   1.406       .  A
C823        N830   1.438       .  S
C824        C825   1.412       .  A
C824        H829   1.083       .  S
C825        C826   1.412       .  A
C826        N827   1.438       .  S
N827       H2911   1.046       .  S
N827       H2912   1.046       .  S
N830        H833   1.046       .  S
N830        H834   1.046       .  S
H831       N2907   1.046       .  S
H832       N2907   1.046       .  S
C835        C836   1.400       .  A
C835        C840   1.401       .  A
C835        H842   1.084       .  S
C836        C837   1.415       .  A
C837        C838   1.402       .  A
C837        N844   1.433       .  S
C838        C839   1.401       .  A
C838        H843   1.084       .  S
C839        C840   1.417       .  A
C840        N841   1.433       .  S
N841        H845   1.046       .  S
N841        H846   1.046       .  S
N844        H847   1.046       .  S
N844        H848   1.046       .  S
C849        C850   1.407       .  A
C849        C854   1.403       .  A
C849        H856   1.083       .  S
C850        C851   1.415       .  A
C851        C852   1.398       .  A
C851        N858   1.433       .  S
C852        C853   1.402       .  A
C852        H857   1.084       .  S
C853        C854   1.409       .  A
C854        N855   1.433       .  S
N855        H859   1.046       .  S
N855        H860   1.046       .  S
N858        H861   1.046       .  S
N858        H862   1.046       .  S
C863        C864   1.399       .  A
C863        C868   1.403       .  A
C863        H870   1.084       .  S
C864        C865   1.418       .  A
C865        C866   1.406       .  A
C865        N872   1.439       .  S
C866        C867   1.402       .  A
C866        H871   1.083       .  S
C867        C868   1.420       .  A
C868        N869   1.439       .  S
N869        H873   1.046       .  S
N869        H874   1.046       .  S
N872        H875   1.046       .  S
N872        H876   1.046       .  S
C877        C878   1.410       .  A
C877        C882   1.401       .  A
C877        H884   1.084       .  S
C878        C879   1.416       .  A
C879        C880   1.400       .  A
C879        N886   1.432       .  S
C880        C881   1.412       .  A
C880        H885   1.083       .  S
C881        C882   1.418       .  A
C882        N883   1.432       .  S
N883        H887   1.045       .  S
N883        H888   1.045       .  S
N886        H889   1.045       .  S
N886        H890   1.045       .  S
C891        C892   1.409       .  A
C891        C896   1.406       .  A
C891        H898   1.084       .  S
C892        C893   1.409       .  A
C893        C894   1.406       .  A
C893        N900   1.438       .  S
C894        C895   1.411       .  A
C894        H899   1.083       .  S
C895        C896   1.410       .  A
C896        N897   1.438       .  S
N897        H901   1.046       .  S
N897        H902   1.046       .  S
N900        H903   1.046       .  S
N900        H904   1.046       .  S
C905        C906   1.407       .  A
C905        C910   1.399       .  A
C905        H912   1.083       .  S
C906        C907   1.408       .  A
C907        C908   1.404       .  A
C907        N914   1.438       .  S
C908        C909   1.411       .  A
C908        H913   1.083       .  S
C909        C910   1.410       .  A
C910        N911   1.438       .  S
N911        H915   1.046       .  S
N911        H916   1.045       .  S
N914        H917   1.046       .  S
N914        H918   1.046       .  S
C919        C920   1.408       .  A
C919        C924   1.400       .  A
C919        H926   1.084       .  S
C920        C921   1.422       .  A
C921        C922   1.393       .  A
C921        N928   1.433       .  S
C922        C923   1.401       .  A
C922        H927   1.084       .  S
C923        C924   1.416       .  A
C924        N925   1.433       .  S
N925        H929   1.046       .  S
N925        H930   1.045       .  S
N928        H931   1.045       .  S
N928        H932   1.045       .  S
C933        C934   1.403       .  A
C933        C938   1.401       .  A
C933        H940   1.084       .  S
C934        C935   1.419       .  A
C935        C936   1.398       .  A
C935        N942   1.433       .  S
C936        C937   1.402       .  A
C936        H941   1.084       .  S
C937        C938   1.421       .  A
C938        N939   1.433       .  S
N939        H943   1.046       .  S
N939        H944   1.044       .  S
N942        H945   1.044       .  S
N942        H946   1.046       .  S
C947        C948   1.406   1_556  A
C947       C3032   1.407       .  A
C947        H954   1.084       .  S
C948        C949   1.412       .  A
C949       C3030   1.405   1_554  A
C949        N956   1.439       .  S
C950        C951   1.407       .  A
C950       C3029   1.406       .  A
C950        H955   1.083       .  S
C951        C952   1.416       .  A
C952       C3027   1.408       .  A
C952        N953   1.438       .  S
N953        H957   1.046       .  S
N953        H958   1.046       .  S
N956        H959   1.046       .  S
N956        H960   1.046       .  S
C961        C962   1.402       .  A
C961        C966   1.392       .  A
C961        H968   1.084       .  S
C962        C963   1.411       .  A
C963        C964   1.408       .  A
C963        N970   1.438       .  S
C964        C965   1.406       .  A
C964        H969   1.084       .  S
C965        C966   1.414       .  A
C966        N967   1.433       .  S
N967        H971   1.044       .  S
N967        H972   1.045       .  S
N970        H973   1.046       .  S
N970        H974   1.046       .  S
C975        C976   1.402       .  A
C975        C980   1.403       .  A
C975        H982   1.084       .  S
C976        C977   1.410       .  A
C977        C978   1.407       .  A
C977        N984   1.438       .  S
C978        C979   1.406       .  A
C978        H983   1.084       .  S
C979        C980   1.414       .  A
C980        N981   1.439       .  S
N981        H985   1.046       .  S
N981        H986   1.046       .  S
N984        H987   1.045       .  S
N984        H988   1.046       .  S
C989        C990   1.407       .  A
C989        C994   1.396       .  A
C989        H996   1.083       .  S
C990        C991   1.419       .  A
C991        C992   1.408       .  A
C991        N998   1.438       .  S
C992        C993   1.402       .  A
C992        H997   1.084       .  S
C993        C994   1.407       .  A
C994        N995   1.434       .  S
N995        H999   1.046       .  S
N995       H1000   1.046       .  S
N998       H1001   1.045       .  S
N998       H1002   1.046       .  S
C1003      C1004   1.410       .  A
C1003      C1008   1.404       .  A
C1003      H1010   1.084       .  S
C1004      C2632   1.485   1_554  S
C1004      C1005   1.410       .  A
C1005      C1006   1.404       .  A
C1005      N1012   1.438       .  S
C1006      C1007   1.411       .  A
C1006      H1011   1.083       .  S
C1007      C1008   1.411       .  A
C1008      N1009   1.438       .  S
N1009      H1013   1.046       .  S
N1009      H1014   1.046       .  S
N1012      H1016   1.046       .  S
N1012      H3095   1.045       .  S
H1015      N3092   1.045       .  S
C1017      C1018   1.402       .  A
C1017      C1022   1.399       .  A
C1017      H1024   1.084       .  S
C1018      C1019   1.411       .  A
C1019      C1020   1.403       .  A
C1019      N1026   1.439       .  S
C1020      C1021   1.403       .  A
C1020      H1025   1.084       .  S
C1021      C1022   1.416       .  A
C1022      N1023   1.433       .  S
N1023      H1027   1.045       .  S
N1023      H1028   1.046       .  S
N1026      H1029   1.046       .  S
N1026      H1030   1.046       .  S
C1031      C1032   1.404       .  A
C1031      C1036   1.403       .  A
C1031      H1038   1.084       .  S
C1032      C1033   1.415       .  A
C1033      C1034   1.415       .  A
C1033      N1040   1.438       .  S
C1034      C1035   1.407       .  A
C1034      H1039   1.083       .  S
C1035      C1036   1.412       .  A
C1036      N1037   1.433       .  S
N1037      H1041   1.046       .  S
N1037      H1042   1.046       .  S
N1040      H1043   1.046       .  S
N1040      H1044   1.046       .  S
C1045      C1046   1.409       .  A
C1045      C1050   1.405       .  A
C1045      H1052   1.084       .  S
C1046      C1047   1.418       .  A
C1047      C1048   1.405       .  A
C1047      N1054   1.438       .  S
C1048      C1049   1.406       .  A
C1048      H1053   1.083       .  S
C1049      C1050   1.420       .  A
C1050      N1051   1.433       .  S
N1051      H1055   1.045       .  S
N1051      H1056   1.045       .  S
N1054      H1057   1.045       .  S
N1054      H1058   1.046       .  S
C1059      C1060   1.404       .  A
C1059      C1064   1.397       .  A
C1059      H1066   1.084       .  S
C1060      C1061   1.415       .  A
C1061      C1062   1.412       .  A
C1061      N1068   1.438       .  S
C1062      C1063   1.404       .  A
C1062      H1067   1.084       .  S
C1063      C2562   1.475       .  S
C1063      C1064   1.407       .  A
C1064      N1065   1.433       .  S
N1065      H1069   1.046       .  S
N1065      H3150   1.046       .  S
N1068      H1071   1.046       .  S
N1068      H1072   1.046       .  S
H1070      N3145   1.046       .  S
C1073      C1074   1.401       .  A
C1073      C1078   1.399       .  A
C1073      H1080   1.084       .  S
C1074      C1075   1.414       .  A
C1075      C1076   1.407       .  A
C1075      N1082   1.438       .  S
C1076      C1077   1.404       .  A
C1076      H1081   1.084       .  S
C1077      C1078   1.418       .  A
C1078      N1079   1.433       .  S
N1079      H1083   1.045       .  S
N1079      H1084   1.046       .  S
N1082      H1085   1.046       .  S
N1082      H1086   1.046       .  S
C1087      C1088   1.403       .  A
C1087      C1092   1.406       .  A
C1087      H1094   1.083       .  S
C1088      C1089   1.417       .  A
C1089      C1090   1.408       .  A
C1089      N1096   1.438       .  S
C1090      C1091   1.403       .  A
C1090      H1095   1.084       .  S
C1091      C1092   1.416       .  A
C1092      N1093   1.438       .  S
N1093      H1097   1.046       .  S
N1093      H1098   1.046       .  S
N1096      H1099   1.046       .  S
N1096      H1100   1.046       .  S
C1101      C1102   1.404       .  A
C1101      C1106   1.393   1_655  A
C1101      H1108   1.084       .  S
C1102      C1103   1.421       .  A
C1103      C1104   1.404   1_655  A
C1103      N1110   1.432       .  S
C1104      C1105   1.408       .  A
C1104      H1109   1.084       .  S
C1105      C1106   1.422       .  A
C1106      N1107   1.433       .  S
N1107      H1111   1.045       .  S
N1107      H1112   1.045       .  S
N1110      H1113   1.045       .  S
N1110      H1114   1.046       .  S
C1115      C1116   1.399       .  A
C1115      C1120   1.399       .  A
C1115      H1122   1.084       .  S
C1116      C1117   1.415       .  A
C1117      C1118   1.404       .  A
C1117      N1124   1.439       .  S
C1118      C1119   1.401       .  A
C1118      H1123   1.084       .  S
C1119      C1120   1.422       .  A
C1120      N1121   1.434       .  S
N1121      H1125   1.044       .  S
N1121      H1126   1.046       .  S
N1124      H1127   1.046       .  S
N1124      H1128   1.046       .  S
C1129      C1130   1.402       .  A
C1129      C1134   1.405   1_655  A
C1129      H1136   1.084       .  S
C1130      C1131   1.412       .  A
C1131      C1132   1.399   1_655  A
C1131      N1138   1.433       .  S
C1132      C1133   1.405       .  A
C1132      H1137   1.084       .  S
C1133      C1134   1.413       .  A
C1134      N1135   1.438       .  S
N1135      H1139   1.046       .  S
N1135      H1140   1.046       .  S
N1138      H1141   1.046       .  S
N1138      H1142   1.045       .  S
C1143      C1144   1.405       .  A
C1143      C1148   1.407       .  A
C1143      H1150   1.084       .  S
C1144      C1145   1.407       .  A
C1145      C1146   1.394       .  A
C1145      N1152   1.433       .  S
C1146      C1147   1.407       .  A
C1146      H1151   1.084       .  S
C1147      C1148   1.410       .  A
C1148      N1149   1.438       .  S
N1149      H1153   1.046       .  S
N1149      H1154   1.046       .  S
N1152      H1155   1.046       .  S
N1152      H1156   1.045       .  S
C1157      C1158   1.400       .  A
C1157      C1162   1.407       .  A
C1157      H1164   1.084       .  S
C1158      C1159   1.408       .  A
C1159      C1160   1.401       .  A
C1159      N1166   1.433       .  S
C1160      C1161   1.404       .  A
C1160      H1165   1.084       .  S
C1161      C1162   1.418       .  A
C1162      N1163   1.438       .  S
N1163      H1167   1.046       .  S
N1163      H1168   1.045       .  S
N1166      H1169   1.046       .  S
N1166      H1170   1.046       .  S
C1171      C1172   1.400       .  A
C1171      C1176   1.400       .  A
C1171      H1178   1.084       .  S
C1172      C1173   1.417       .  A
C1173      C1174   1.409       .  A
C1173      N1180   1.439       .  S
C1174      C1175   1.402       .  A
C1174      H1179   1.084       .  S
C1175      C1176   1.421       .  A
C1176      N1177   1.433       .  S
N1177      H1181   1.044       .  S
N1177      H1182   1.046       .  S
N1180      H1183   1.046       .  S
N1180      H1184   1.046       .  S
C1185      C1186   1.405       .  A
C1185      C1190   1.402   1_655  A
C1185      H3272   1.084       .  S
C1186      C1187   1.419       .  A
C1187      C1188   1.402   1_655  A
C1187      N1194   1.432       .  S
C1188      C1189   1.402       .  A
C1188      H1193   1.084       .  S
C1189      C1190   1.409       .  A
C1190      N3271   1.439       .  S
N1191      C3270   1.439   1_554  S
N1191      H1195   1.046       .  S
N1191      H1196   1.046       .  S
H1192      C3265   1.084   1_554  S
N1194      H1197   1.045       .  S
N1194      H1198   1.045       .  S
C1199      C1200   1.404       .  A
C1199      C1204   1.398       .  A
C1199      H1206   1.084       .  S
C1200      C1201   1.424       .  A
C1201      C1202   1.399       .  A
C1201      N1208   1.433       .  S
C1202      C1203   1.403       .  A
C1202      H1207   1.084       .  S
C1203      C1204   1.423       .  A
C1204      N1205   1.433       .  S
N1205      H1209   1.045       .  S
N1205      H1210   1.045       .  S
N1208      H1211   1.045       .  S
N1208      H1212   1.045       .  S
C1213      C1218   1.407       .  A
C1213      C3294   1.405       .  A
C1213      H1220   1.083       .  S
C1214      C1215   1.418       .  A
C1214      C3293   1.404       .  A
C1215      C1216   1.404       .  A
C1215      N1222   1.433       .  S
C1216      C3297   1.403       .  A
C1216      H1221   1.084       .  S
C1217      C1218   1.418   1_554  A
C1217      C3296   1.402       .  A
C1218      N1219   1.439       .  S
N1219      H1223   1.046       .  S
N1219      H1224   1.046       .  S
N1222      H1225   1.046       .  S
N1222      H1226   1.046       .  S
C1227      C1228   1.403       .  A
C1227      C1232   1.402   1_655  A
C1227      H1234   1.084       .  S
C1228      C1229   1.414       .  A
C1229      C1230   1.406   1_655  A
C1229      N1236   1.438       .  S
C1230      C1231   1.404       .  A
C1230      H1235   1.084       .  S
C1231      C1232   1.413       .  A
C1232      N1233   1.439       .  S
N1233      H1237   1.046       .  S
N1233      H1238   1.046       .  S
N1236      H1239   1.046       .  S
N1236      H1240   1.046       .  S
C1241      C1242   1.403       .  A
C1241      C1246   1.405       .  A
C1241      H1248   1.084       .  S
C1242      C1243   1.406       .  A
C1243      C1244   1.406       .  A
C1243      N1250   1.438       .  S
C1244      C1245   1.409       .  A
C1244      H1249   1.083       .  S
C1245      C1246   1.413       .  A
C1246      N1247   1.438       .  S
N1247      H1251   1.046       .  S
N1247      H1252   1.046       .  S
N1250      H1253   1.045       .  S
N1250      H1254   1.046       .  S
C1255      C1256   1.405       .  A
C1255      C1260   1.401       .  A
C1255      H1262   1.084       .  S
C1256      C1257   1.413       .  A
C1257      C1258   1.401       .  A
C1257      N1264   1.439       .  S
C1258      C1259   1.401       .  A
C1258      H1263   1.084       .  S
C1259      C1260   1.413       .  A
C1260      N1261   1.432       .  S
N1261      H1265   1.045       .  S
N1261      H1266   1.046       .  S
N1264      H1267   1.046       .  S
N1264      H1268   1.046       .  S
C1269      C1270   1.399       .  A
C1269      C1274   1.409       .  A
C1269      H1276   1.084       .  S
C1270      C1271   1.417       .  A
C1271      C1272   1.402       .  A
C1271      N1278   1.433       .  S
C1272      C1273   1.402       .  A
C1272      H1277   1.084       .  S
C1273      C1274   1.420       .  A
C1274      N1275   1.438       .  S
N1275      H1279   1.046       .  S
N1275      H1280   1.046       .  S
N1278      H1281   1.046       .  S
N1278      H1282   1.045       .  S
C1283      C1284   1.411       .  A
C1283      C1288   1.407       .  A
C1283      H1290   1.083       .  S
C1284      C1285   1.412       .  A
C1285      C1286   1.407       .  A
C1285      N1292   1.438       .  S
C1286      C1287   1.411       .  A
C1286      H1291   1.083       .  S
C1287      C1288   1.413       .  A
C1288      N1289   1.438       .  S
N1289      H1293   1.046       .  S
N1289      H1294   1.045       .  S
N1292      H1295   1.045       .  S
N1292      H1296   1.046       .  S
C1297      C1298   1.404       .  A
C1297      C1302   1.399       .  A
C1297      H1304   1.083       .  S
C1298      C1299   1.414       .  A
C1299      C1300   1.405       .  A
C1299      N3386   1.438       .  S
C1300      C1301   1.405       .  A
C1300      H3385   1.083       .  S
C1301      C1302   1.414       .  A
C1302      N1303   1.439       .  S
N1303      H1307   1.046       .  S
N1303      H1308   1.046       .  S
H1305      C3380   1.084       .  S
N1306      C3379   1.438       .  S
N1306      H1309   1.046       .  S
N1306      H1310   1.046       .  S
C1311      C1312   1.407       .  A
C1311      C1316   1.404       .  A
C1311      H1318   1.084       .  S
C1312      C1313   1.422       .  A
C1313      C1314   1.398       .  A
C1313      N1320   1.433       .  S
C1314      C1315   1.406       .  A
C1314      H1319   1.084       .  S
C1315      C1316   1.420       .  A
C1316      N1317   1.432       .  S
N1317      H1321   1.045       .  S
N1317      H1322   1.045       .  S
N1320      H1323   1.045       .  S
N1320      H1324   1.045       .  S
C1325      C1326   1.413       .  A
C1325      C1330   1.402       .  A
C1325      H1332   1.083       .  S
C1326      C1327   1.414       .  A
C1327      C1328   1.406       .  A
C1327      N1334   1.438       .  S
C1328      C1329   1.406       .  A
C1328      H1333   1.084       .  S
C1329      C1330   1.404       .  A
C1330      N1331   1.438       .  S
N1331      H1335   1.046       .  S
N1331      H1336   1.046       .  S
N1334      H1337   1.046       .  S
N1334      H1338   1.046       .  S
C1339      C1340   1.404       .  A
C1339      C1344   1.398       .  A
C1339      H1346   1.084       .  S
C1340      C1341   1.417       .  A
C1341      C1342   1.396       .  A
C1341      N1348   1.433       .  S
C1342      C1343   1.407       .  A
C1342      H1347   1.084       .  S
C1343      C1344   1.419       .  A
C1344      N1345   1.432       .  S
N1345      H1349   1.045       .  S
N1345      H1350   1.045       .  S
N1348      H1351   1.044       .  S
N1348      H1352   1.046       .  S
C1353      C1354   1.404       .  A
C1353      C1358   1.400       .  A
C1353      H1360   1.084       .  S
C1354      C1355   1.412       .  A
C1355      C1356   1.405       .  A
C1355      N1362   1.438       .  S
C1356      C1357   1.404       .  A
C1356      H1361   1.084       .  S
C1357      C1358   1.415       .  A
C1358      N1359   1.433       .  S
N1359      H1363   1.045       .  S
N1359      H1364   1.046       .  S
N1362      H1365   1.046       .  S
N1362      H1366   1.046       .  S
C1367      C1368   1.405       .  A
C1367      C1372   1.398       .  A
C1367      H1374   1.084       .  S
C1368      C1369   1.404       .  A
C1369      C1370   1.403       .  A
C1369      N1376   1.438       .  S
C1370      C1371   1.410       .  A
C1370      H1375   1.084       .  S
C1371      C1372   1.412       .  A
C1372      N1373   1.432       .  S
N1373      H3457   1.045       .  S
N1373      H3458   1.045       .  S
N1376      H1379   1.046       .  S
N1376      H1380   1.046       .  S
H1377      N3453   1.045   1_554  S
H1378      N3453   1.042       .  S
C1381      C1382   1.401       .  A
C1381      C1386   1.404       .  A
C1381      H1388   1.084       .  S
C1382      C1383   1.414       .  A
C1383      C1384   1.405       .  A
C1383      N1390   1.438       .  S
C1384      C1385   1.401       .  A
C1384      H1389   1.084       .  S
C1385      C1386   1.412       .  A
C1386      N1387   1.438       .  S
N1387      H1391   1.046       .  S
N1387      H1392   1.046       .  S
N1390      H1393   1.045       .  S
N1390      H1394   1.046       .  S
C1395      C1396   1.402       .  A
C1395      C1400   1.397       .  A
C1395      H1402   1.084       .  S
C1396      C1397   1.416       .  A
C1397      C1398   1.395       .  A
C1397      N1404   1.433       .  S
C1398      C1399   1.406       .  A
C1398      H1403   1.084       .  S
C1399      C1400   1.422       .  A
C1400      N1401   1.433       .  S
N1401      H1405   1.045       .  S
N1401      H1406   1.045       .  S
N1404      H1407   1.044       .  S
N1404      H1408   1.046       .  S
C1409      C1410   1.412       .  A
C1409      C1414   1.401       .  A
C1409      H1416   1.083       .  S
C1410      C1411   1.412       .  A
C1411      C1412   1.402       .  A
C1411      N1418   1.438       .  S
C1412      C1413   1.406       .  A
C1412      H1417   1.084       .  S
C1413      C2399   1.473   1_554  S
C1413      C1414   1.405       .  A
C1414      N1415   1.438       .  S
N1415      H1419   1.046       .  S
N1415      H3500   1.046       .  S
N1418      H1421   1.046       .  S
N1418      H1422   1.046       .  S
H1420      N3495   1.046       .  S
C1423      C1424   1.407       .  A
C1423      C1428   1.408       .  A
C1423      H1430   1.084       .  S
C1424      C1425   1.415       .  A
C1425      C1426   1.402       .  A
C1425      N1432   1.439       .  S
C1426      C1427   1.408       .  A
C1426      H1431   1.084       .  S
C1427      C1428   1.409       .  A
C1428      N1429   1.437       .  S
N1429      H1433   1.046       .  S
N1429      H1434   1.046       .  S
N1432      H1435   1.042       .  S
N1432      H1436   1.046       .  S
C1437      C1438   1.404       .  A
C1437      C1442   1.411       .  A
C1437      H1444   1.084       .  S
C1438      C1439   1.407       .  A
C1439      C1440   1.399       .  A
C1439      N1446   1.433       .  S
C1440      C1441   1.404       .  A
C1440      H1445   1.084       .  S
C1441      C1442   1.415       .  A
C1442      N1443   1.437       .  S
N1443      H1447   1.046       .  S
N1443      H1448   1.046       .  S
N1446      H1449   1.046       .  S
N1446      H1450   1.046       .  S
C1451      C1452   1.404       .  A
C1451      C1456   1.403   1_565  A
C1451      H1458   1.084       .  S
C1452      C1453   1.414       .  A
C1453      C1454   1.407   1_565  A
C1453      N1460   1.438       .  S
C1454      C1455   1.405       .  A
C1454      H1459   1.084       .  S
C1455      C1456   1.417       .  A
C1456      N1457   1.432       .  S
N1457      H1461   1.045       .  S
N1457      H1462   1.046       .  S
N1460      H1463   1.046       .  S
N1460      H1464   1.046       .  S
C1465      C1466   1.402       .  A
C1465      C1470   1.406       .  A
C1465      H1472   1.084       .  S
C1466      C1467   1.412       .  A
C1467      C1468   1.408       .  A
C1467      N1474   1.438       .  S
C1468      C1469   1.405       .  A
C1468      H1473   1.084       .  S
C1469      C1470   1.414       .  A
C1470      N1471   1.438       .  S
N1471      H1475   1.046       .  S
N1471      H1476   1.046       .  S
N1474      H1477   1.045       .  S
N1474      H1478   1.046       .  S
C1479      C1480   1.404       .  A
C1479      C1484   1.406       .  A
C1479      H1486   1.084       .  S
C1480      C2333   1.480       .  S
C1480      C1481   1.410       .  A
C1481      C1482   1.400       .  A
C1481      N1488   1.433       .  S
C1482      C1483   1.405       .  A
C1482      H1487   1.084       .  S
C1483      C1484   1.417       .  A
C1484      N1485   1.438       .  S
N1485      H1489   1.046       .  S
N1485      H1490   1.046       .  S
N1488      H1492   1.046       .  S
N1488      H3571   1.046       .  S
H1491      N3568   1.046       .  S
C1493      C1494   1.414       .  A
C1493      C1498   1.404       .  A
C1493      H1500   1.083       .  S
C1494      C1495   1.413       .  A
C1495      C1496   1.403       .  A
C1495      N1502   1.438       .  S
C1496      C1497   1.406       .  A
C1496      H1501   1.084       .  S
C1497      C1498   1.404       .  A
C1498      N1499   1.438       .  S
N1499      H1503   1.046       .  S
N1499      H1504   1.046       .  S
N1502      H1505   1.046       .  S
N1502      H1506   1.046       .  S
C1507      C1508   1.403       .  A
C1507      C1512   1.412   1_565  A
C1507      H1514   1.084       .  S
C1508      C1509   1.403       .  A
C1509      C1510   1.395   1_565  A
C1509      N1516   1.433       .  S
C1510      C1511   1.413       .  A
C1510      H1515   1.083       .  S
C1511      C1512   1.418       .  A
C1512      N1513   1.437       .  S
N1513      H1517   1.046   1_545  S
N1513      H1518   1.046       .  S
N1516      H1519   1.046       .  S
N1516      H1520   1.045       .  S
C1521      C1522   1.405       .  A
C1521      C1526   1.407       .  A
C1521      H1528   1.084       .  S
C1522      C1523   1.410       .  A
C1523      C1524   1.399       .  A
C1523      N1530   1.438       .  S
C1524      C1525   1.402       .  A
C1524      H1529   1.084       .  S
C1525      C1526   1.412       .  A
C1526      N1527   1.438       .  S
N1527      H1531   1.046       .  S
N1527      H1532   1.046       .  S
N1530      H1533   1.046       .  S
N1530      H1534   1.046       .  S
C1535      C1536   1.404       .  A
C1535      C1540   1.407   1_565  A
C1535      H1542   1.083       .  S
C1536      C1537   1.418       .  A
C1537      C1538   1.410   1_565  A
C1537      N1544   1.438       .  S
C1538      C1539   1.404       .  A
C1538      H1543   1.084       .  S
C1539      C1540   1.417       .  A
C1540      N1541   1.438       .  S
N1541      H1545   1.046       .  S
N1541      H1546   1.046       .  S
N1544      H1547   1.046       .  S
N1544      H1548   1.046       .  S
C1549      C1550   1.404       .  A
C1549      C1554   1.397       .  A
C1549      H1556   1.084       .  S
C1550      C1551   1.405       .  A
C1551      C1552   1.406       .  A
C1551      N1558   1.438       .  S
C1552      C1553   1.411       .  A
C1552      H1557   1.084       .  S
C1553      C1554   1.413       .  A
C1554      N1555   1.432       .  S
N1555      H1559   1.045       .  S
N1555      H1560   1.045       .  S
N1558      H1561   1.046       .  S
N1558      H1562   1.046       .  S
C1563      C1564   1.406       .  A
C1563      C1568   1.411       .  A
C1563      H3650   1.083   1_554  S
C1564      C1565   1.417       .  A
C1565      C1566   1.406       .  A
C1565      N1572   1.439       .  S
C1566      C1567   1.405       .  A
C1566      H1571   1.083       .  S
C1567      C1568   1.416       .  A
C1568      N3649   1.438   1_554  S
N1569      C3648   1.438       .  S
N1569      H1573   1.046       .  S
N1569      H1574   1.046       .  S
H1570      C3643   1.083       .  S
N1572      H1575   1.046       .  S
N1572      H1576   1.046       .  S
C1577      C1578   1.402       .  A
C1577      C1582   1.407       .  A
C1577      H1584   1.083       .  S
C1578      C1579   1.418       .  A
C1579      C1580   1.400       .  A
C1579      N1586   1.433       .  S
C1580      C1581   1.399       .  A
C1580      H1585   1.084       .  S
C1581      C1582   1.420       .  A
C1582      N1583   1.439       .  S
N1583      H1587   1.046       .  S
N1583      H1588   1.046       .  S
N1586      H1589   1.046       .  S
N1586      H1590   1.046       .  S
C1591      C1592   1.405       .  A
C1591      C1596   1.392       .  A
C1591      H1598   1.084       .  S
C1592      C1593   1.416       .  A
C1593      C1594   1.397       .  A
C1593      N1600   1.433       .  S
C1594      C1595   1.407       .  A
C1594      H1599   1.084       .  S
C1595      C1596   1.418       .  A
C1596      N1597   1.433       .  S
N1597      H1601   1.045       .  S
N1597      H1602   1.045       .  S
N1600      H1603   1.045       .  S
N1600      H1604   1.045       .  S
C1605      C1610   1.404   1_545  A
C1605      C3686   1.408   1_554  A
C1605      H1612   1.083       .  S
C1606      C1607   1.413       .  A
C1606      C3685   1.408       .  A
C1607      C1608   1.404   1_545  A
C1607      N1614   1.438       .  S
C1608      C3689   1.407       .  A
C1608      H1613   1.084       .  S
C1609      C1610   1.411       .  A
C1609      C3688   1.408   1_554  A
C1610      N1611   1.438       .  S
N1611      H1615   1.046       .  S
N1611      H1616   1.046       .  S
N1614      H1617   1.046       .  S
N1614      H1618   1.046       .  S
C1619      C1620   1.399       .  A
C1619      C1624   1.410       .  A
C1619      H1626   1.084       .  S
C1620      C1621   1.413       .  A
C1621      C1622   1.400       .  A
C1621      N1628   1.433       .  S
C1622      C1623   1.403       .  A
C1622      H1627   1.084       .  S
C1623      C1624   1.424       .  A
C1624      N1625   1.439       .  S
N1625      H1629   1.046       .  S
N1625      H1630   1.046       .  S
N1628      H1631   1.046       .  S
N1628      H1632   1.045       .  S
C1633      C1634   1.407       .  A
C1633      C1638   1.404       .  A
C1633      H1640   1.084       .  S
C1634      C1635   1.420       .  A
C1635      C1636   1.395       .  A
C1635      N1642   1.433       .  S
C1636      C1637   1.404       .  A
C1636      H1641   1.084       .  S
C1637      C1638   1.419       .  A
C1638      N1639   1.432       .  S
N1639      H1643   1.046       .  S
N1639      H1644   1.045       .  S
N1642      H1645   1.045       .  S
N1642      H1646   1.045       .  S
C1647      C1648   1.403       .  A
C1647      C1652   1.402       .  A
C1647      H1654   1.084       .  S
C1648      C1649   1.417       .  A
C1649      C1650   1.402       .  A
C1649      N1656   1.433       .  S
C1650      C1651   1.406       .  A
C1650      H1655   1.084       .  S
C1651      C1652   1.415       .  A
C1652      N1653   1.439       .  S
N1653      H1657   1.046       .  S
N1653      H1658   1.046       .  S
N1656      H1659   1.045       .  S
N1656      H1660   1.046       .  S
C1661      C1662   1.406       .  A
C1661      C1666   1.399       .  A
C1661      H1668   1.084       .  S
C1662      C1663   1.415       .  A
C1663      C1664   1.405       .  A
C1663      N1670   1.438       .  S
C1664      C1665   1.400       .  A
C1664      H1669   1.084       .  S
C1665      C1666   1.412       .  A
C1666      N1667   1.433       .  S
N1667      H1671   1.045       .  S
N1667      H1672   1.046       .  S
N1670      H1673   1.046       .  S
N1670      H1674   1.046       .  S
C1675      C1676   1.406       .  A
C1675      C1680   1.404       .  A
C1675      H1682   1.083       .  S
C1676      C1677   1.417       .  A
C1677      C1678   1.410       .  A
C1677      N1684   1.438       .  S
C1678      C1679   1.402       .  A
C1678      H1683   1.084       .  S
C1679      C1680   1.409       .  A
C1680      N1681   1.439       .  S
N1681      H1685   1.046       .  S
N1681      H1686   1.045       .  S
N1684      H1687   1.046       .  S
N1684      H1688   1.046       .  S
C1689      C1690   1.403       .  A
C1689      C1694   1.402       .  A
C1689      H1696   1.084       .  S
C1690      C1691   1.418       .  A
C1691      C1692   1.403       .  A
C1691      N1698   1.438       .  S
C1692      C1693   1.404       .  A
C1692      H1697   1.084       .  S
C1693      C1694   1.412       .  A
C1694      N1695   1.439       .  S
N1695      H1699   1.046       .  S
N1695      H1700   1.046       .  S
N1698      H1701   1.042       .  S
N1698      H1702   1.046       .  S
C1703      C1704   1.407       .  A
C1703      C1708   1.409       .  A
C1703      H1710   1.084       .  S
C1704      C1705   1.413       .  A
C1705      C1706   1.396       .  A
C1705      N1712   1.433       .  S
C1706      C1707   1.405       .  A
C1706      H1711   1.084       .  S
C1707      C2260   1.479   1_554  S
C1707      C1708   1.411       .  A
C1708      N1709   1.437       .  S
N1709      H1713   1.046       .  S
N1709      H3794   1.046   1_554  S
N1712      H1715   1.046       .  S
N1712      H1716   1.044       .  S
H1714      N3789   1.046       .  S
C1717      C1718   1.405       .  A
C1717      C1722   1.407   1_655  A
C1717      H1724   1.083       .  S
C1718      C1719   1.414       .  A
C1719      C1720   1.404   1_655  A
C1719      N1726   1.439       .  S
C1720      C1721   1.405       .  A
C1720      H1725   1.084       .  S
C1721      C1722   1.414       .  A
C1722      N1723   1.438       .  S
N1723      H1727   1.046       .  S
N1723      H1728   1.046       .  S
N1726      H1729   1.046       .  S
N1726      H1730   1.046       .  S
C1731      C1732   1.400       .  A
C1731      C1736   1.405       .  A
C1731      H1738   1.084       .  S
C1732      C1733   1.410       .  A
C1733      C1734   1.407       .  A
C1733      N1740   1.438       .  S
C1734      C1735   1.406       .  A
C1734      H1739   1.083       .  S
C1735      C1736   1.416       .  A
C1736      N1737   1.438       .  S
N1737      H1741   1.046       .  S
N1737      H1742   1.046       .  S
N1740      H1743   1.045       .  S
N1740      H3824   1.046       .  S
H1744      N3820   1.046       .  S
C1745      C1746   1.400       .  A
C1745      C1750   1.408       .  A
C1745      H1752   1.084       .  S
C1746      C1747   1.420       .  A
C1747      C1748   1.400       .  A
C1747      N1754   1.434       .  S
C1748      C1749   1.401       .  A
C1748      H1753   1.084       .  S
C1749      C1750   1.419       .  A
C1750      N1751   1.439       .  S
N1751      H1755   1.046       .  S
N1751      H1756   1.046       .  S
N1754      H1757   1.046       .  S
N1754      H1758   1.044       .  S
C1759      C1760   1.403       .  A
C1759      C1764   1.398   1_655  A
C1759      H1766   1.084       .  S
C1760      C1761   1.413       .  A
C1761      C1762   1.406   1_655  A
C1761      N1768   1.438       .  S
C1762      C1763   1.403       .  A
C1762      H1767   1.084       .  S
C1763      C1764   1.414       .  A
C1764      N1765   1.433       .  S
N1765      H1769   1.044       .  S
N1765      H1770   1.046       .  S
N1768      H1771   1.046       .  S
N1768      H1772   1.046       .  S
C1773      C1774   1.405       .  A
C1773      C1778   1.404       .  A
C1773      H1780   1.084       .  S
C1774      C1775   1.418       .  A
C1775      C1776   1.399       .  A
C1775      N1782   1.433       .  S
C1776      C1777   1.401       .  A
C1776      H1781   1.084       .  S
C1777      C1778   1.410       .  A
C1778      N1779   1.438       .  S
N1779      H1783   1.046       .  S
N1779      H1784   1.046       .  S
N1782      H1785   1.045       .  S
N1782      H1786   1.045       .  S
C1787      C1788   1.405       .  A
C1787      C1792   1.409       .  A
C1787      H1794   1.084       .  S
C1788      C1789   1.405       .  A
C1789      C1790   1.398       .  A
C1789      N1796   1.433       .  S
C1790      C1791   1.405       .  A
C1790      H1795   1.084       .  S
C1791      C1792   1.413       .  A
C1792      N1793   1.438       .  S
N1793      H1797   1.046       .  S
N1793      H1798   1.046       .  S
N1796      H1799   1.046       .  S
N1796      H1800   1.046       .  S
C1801      C1802   1.403       .  A
C1801      C1806   1.407       .  A
C1801      H1808   1.084       .  S
C1802      C1803   1.419       .  A
C1803      C1804   1.401       .  A
C1803      N1810   1.439       .  S
C1804      C1805   1.395       .  A
C1804      H1809   1.084       .  S
C1805      C1806   1.412       .  A
C1806      N1807   1.438       .  S
N1807      H1811   1.046       .  S
N1807      H1812   1.045       .  S
N1810      H1813   1.045       .  S
N1810      H1814   1.046       .  S
C1815      C1816   1.397       .  A
C1815      C1820   1.406       .  A
C1815      H1822   1.084       .  S
C1816      C1817   1.419       .  A
C1817      C1818   1.403       .  A
C1817      N1824   1.438       .  S
C1818      C1819   1.404       .  A
C1818      H1823   1.084       .  S
C1819      C1820   1.422       .  A
C1820      N1821   1.439       .  S
N1821      H1825   1.046       .  S
N1821      H1826   1.046       .  S
N1824      H1827   1.043       .  S
N1824      H1828   1.045       .  S
C1829      C1830   1.405       .  A
C1829      C1834   1.407       .  A
C1829      H1836   1.084       .  S
C1830      C1831   1.416       .  A
C1831      C1832   1.407       .  A
C1831      N1838   1.438       .  S
C1832      C1833   1.402       .  A
C1832      H1837   1.084       .  S
C1833      C1834   1.412       .  A
C1834      N1835   1.438       .  S
N1835      H1839   1.046       .  S
N1835      H1840   1.045       .  S
N1838      H1841   1.046       .  S
N1838      H1842   1.046       .  S
C1843      C1844   1.402       .  A
C1843      C1848   1.395   1_655  A
C1843      H1850   1.084       .  S
C1844      C1845   1.412       .  A
C1845      C1846   1.408   1_655  A
C1845      N1852   1.437       .  S
C1846      C1847   1.404       .  A
C1846      H1851   1.084       .  S
C1847      C1848   1.417       .  A
C1848      N1849   1.434       .  S
N1849      H1853   1.044       .  S
N1849      H1854   1.046       .  S
N1852      H1855   1.046       .  S
N1852      H1856   1.046       .  S
C1857      C1858   1.401       .  A
C1857      C1862   1.404   1_565  A
C1857      H1864   1.084       .  S
C1858      C1859   1.417       .  A
C1859      C1860   1.405   1_565  A
C1859      N1866   1.439       .  S
C1860      C1861   1.403       .  A
C1860      H1865   1.083       .  S
C1861      C1862   1.417       .  A
C1862      N1863   1.438       .  S
N1863      H1867   1.046       .  S
N1863      H1868   1.046       .  S
N1866      H1869   1.046       .  S
N1866      H1870   1.046       .  S
C1871      C1872   1.403       .  A
C1871      C1876   1.398       .  A
C1871      H1878   1.083       .  S
C1872      C1873   1.414       .  A
C1873      C1874   1.408       .  A
C1873      N1880   1.438   1_554  S
C1874      C1875   1.406       .  A
C1874      H1879   1.083   1_554  S
C1875      C1876   1.415       .  A
C1876      N1877   1.439       .  S
N1877      H1881   1.046       .  S
N1877      H1882   1.046       .  S
N1880      H1883   1.046       .  S
N1880      H1884   1.046       .  S
C1885      C1886   1.403       .  A
C1885      C1890   1.398   1_655  A
C1885      H1892   1.084       .  S
C1886      C1887   1.409       .  A
C1887      C1888   1.405   1_655  A
C1887      N1894   1.438       .  S
C1888      C1889   1.406       .  A
C1888      H1893   1.084       .  S
C1889      C1890   1.414       .  A
C1890      N1891   1.433       .  S
N1891      H1895   1.045       .  S
N1891      H1896   1.046       .  S
N1894      H1897   1.046       .  S
N1894      H1898   1.046       .  S
C1899      C1900   1.405       .  A
C1899      C1904   1.397       .  A
C1899      H1906   1.084       .  S
C1900      C1901   1.412       .  A
C1901      C1902   1.404       .  A
C1901      N1908   1.432       .  S
C1902      C1903   1.406       .  A
C1902      H1907   1.084       .  S
C1903      C1904   1.412       .  A
C1904      N1905   1.433       .  S
N1905      H1909   1.046       .  S
N1905      H1910   1.046       .  S
N1908      H1911   1.046       .  S
N1908      H1912   1.046       .  S
C1913      C1914   1.403       .  A
C1913      C1918   1.398       .  A
C1913      H1920   1.084       .  S
C1914      C1915   1.429       .  A
C1915      C1916   1.396       .  A
C1915      N1922   1.433       .  S
C1916      C1917   1.396       .  A
C1916      H1921   1.084       .  S
C1917      C1918   1.422       .  A
C1918      N1919   1.434       .  S
N1919      H1923   1.044       .  S
N1919      H1924   1.046       .  S
N1922      H1925   1.045       .  S
N1922      H1926   1.045       .  S
C1927      C1928   1.405       .  A
C1927      C1932   1.406   1_564  A
C1927      H1934   1.084       .  S
C1928      C4009   1.417       .  A
C1929      C1930   1.403   1_565  A
C1929      C4008   1.415       .  A
C1929      N1936   1.433       .  S
C1930      C1931   1.405       .  A
C1930      H1935   1.084       .  S
C1931      C4012   1.413       .  A
C1932      C4011   1.412       .  A
C1932      N1933   1.438       .  S
N1933      H1937   1.046       .  S
N1933      H4018   1.046       .  S
N1936      H1940   1.045       .  S
N1936      H4019   1.046       .  S
H1938      N4013   1.046       .  S
H1939      N4016   1.046   1_556  S
C1941      C1942   1.403       .  A
C1941      C1946   1.396       .  A
C1941      H1948   1.084       .  S
C1942      C1943   1.412       .  A
C1943      C1944   1.409       .  A
C1943      N1950   1.438       .  S
C1944      C1945   1.406       .  A
C1944      H1949   1.084       .  S
C1945      C1946   1.413       .  A
C1946      N1947   1.433       .  S
N1947      H1951   1.045       .  S
N1947      H1952   1.046       .  S
N1950      H1953   1.046       .  S
N1950      H1954   1.046       .  S
C1955      C1956   1.405       .  A
C1955      C1960   1.408       .  A
C1955      H1962   1.084       .  S
C1956      C1957   1.416       .  A
C1957      C1958   1.400       .  A
C1957      N1964   1.433       .  S
C1958      C1959   1.403       .  A
C1958      H1963   1.084       .  S
C1959      C1960   1.412       .  A
C1960      N1961   1.438       .  S
N1961      H1965   1.046       .  S
N1961      H1966   1.046       .  S
N1964      H1967   1.046       .  S
N1964      H1968   1.045       .  S
C1969      C1970   1.411       .  A
C1969      C1974   1.406   1_565  A
C1969      H1976   1.083       .  S
C1970      C1971   1.412       .  A
C1971      C1972   1.408   1_565  A
C1971      N1978   1.438       .  S
C1972      C1973   1.412       .  A
C1972      H1977   1.083       .  S
C1973      C1974   1.413       .  A
C1974      N1975   1.438       .  S
N1975      H1979   1.046   1_545  S
N1975      H1980   1.046       .  S
N1978      H1981   1.046       .  S
N1978      H1982   1.046   1_565  S
C1983      C1984   1.408       .  A
C1983      C1988   1.404       .  A
C1983      H1990   1.084       .  S
C1984      C1985   1.406       .  A
C1985      C1986   1.407       .  A
C1985      N1992   1.437       .  S
C1986      C1987   1.409       .  A
C1986      H1991   1.084       .  S
C1987      C1988   1.413       .  A
C1988      N1989   1.432       .  S
N1989      H1993   1.045       .  S
N1989      H1994   1.046       .  S
N1992      H1995   1.046       .  S
N1992      H1996   1.046       .  S
C1997      C1998   1.405       .  A
C1997      C2002   1.405       .  A
C1997      H2004   1.084       .  S
C1998      C1999   1.414       .  A
C1999      C2000   1.411       .  A
C1999      N2006   1.437       .  S
C2000      C2001   1.404       .  A
C2000      H2005   1.084       .  S
C2001      C2002   1.411       .  A
C2002      N2003   1.439       .  S
N2003      H2007   1.046       .  S
N2003      H2008   1.046       .  S
N2006      H2009   1.045       .  S
N2006      H2010   1.046       .  S
C2011      C2012   1.405       .  A
C2011      C2016   1.402       .  A
C2011      H2018   1.083       .  S
C2012      C2013   1.418       .  A
C2013      C2014   1.409       .  A
C2013      N2020   1.438       .  S
C2014      C2015   1.406       .  A
C2014      H2019   1.083       .  S
C2015      C2016   1.417       .  A
C2016      N2017   1.439       .  S
N2017      H2021   1.046       .  S
N2017      H2022   1.046       .  S
N2020      H2023   1.045       .  S
N2020      H2024   1.046       .  S
C2025      C2026   1.401       .  A
C2025      C2030   1.401       .  A
C2025      H2032   1.084       .  S
C2026      C2102   1.481       .  S
C2026      C2027   1.419       .  A
C2027      C2028   1.408       .  A
C2027      N2034   1.438       .  S
C2028      C2029   1.398       .  A
C2028      H2033   1.084       .  S
C2029      C2030   1.410       .  A
C2030      N2031   1.433       .  S
N2031      H2035   1.046       .  S
N2031      H2036   1.046       .  S
N2034      H2038   1.046       .  S
N2034      H4117   1.046       .  S
H2037      N4114   1.045   1_554  S
C2039      C2040   1.402       .  A
C2039      C2044   1.409       .  A
C2039      H2046   1.084       .  S
C2040      C2041   1.412       .  A
C2041      C2042   1.396       .  A
C2041      N2048   1.433       .  S
C2042      C2043   1.404       .  A
C2042      H2047   1.084       .  S
C2043      C2044   1.416       .  A
C2044      N2045   1.438       .  S
N2045      H2049   1.046       .  S
N2045      H2050   1.046       .  S
N2048      H2051   1.046       .  S
N2048      H2052   1.044       .  S
C2053      C2054   1.401       .  A
C2053      C2058   1.405   1_565  A
C2053      H2060   1.083       .  S
C2054      C2055   1.421       .  A
C2055      C2056   1.409   1_565  A
C2055      N2062   1.439       .  S
C2056      C2057   1.405       .  A
C2056      H2061   1.083       .  S
C2057      C2058   1.422       .  A
C2058      N2059   1.439       .  S
N2059      H2063   1.046       .  S
N2059      H2064   1.046       .  S
N2062      H2065   1.046       .  S
N2062      H2066   1.046       .  S
C2067      C2068   1.399       .  A
C2067      C2072   1.406       .  A
C2067      H2074   1.084       .  S
C2068      C2069   1.418       .  A
C2069      C2070   1.408       .  A
C2069      N2076   1.439       .  S
C2070      C2071   1.401       .  A
C2070      H2075   1.084       .  S
C2071      C2072   1.421       .  A
C2072      N2073   1.439       .  S
N2073      H2077   1.046       .  S
N2073      H2078   1.046       .  S
N2076      H2079   1.045       .  S
N2076      H2080   1.046       .  S
Zn2081     O2085   1.926       .  S
Zn2081     O2086   1.988       .  S
Zn2081     O2090   1.985       .  S
Zn2081     O2097   1.984       .  S
Zn2082     O2085   1.954       .  S
Zn2082     O2087   1.997       .  S
Zn2082     O2089   2.049       .  S
Zn2082     O2093   2.033       .  S
Zn2083     O2085   1.954       .  S
Zn2083     O2088   2.037       .  S
Zn2083     O2091   2.040       .  S
Zn2083     O2094   2.038       .  S
Zn2084     O2085   1.935       .  S
Zn2084     O2092   2.006       .  S
Zn2084     O2095   2.001       .  S
Zn2084     O2096   2.024       .  S
O2086      C2098   1.269       .  A
O2087      C2099   1.272       .  A
O2088      C2100   1.276       .  A
O2089      C2098   1.278       .  A
O2090      C2100   1.270       .  A
O2091      C2099   1.279       .  A
O2092      C2101   1.272       .  A
O2093      C2102   1.277       .  A
O2094      C2101   1.275       .  A
O2095      C2102   1.272       .  A
O2096      C2103   1.275       .  A
O2097      C2103   1.270       .  A
C2098      C4134   1.484       .  S
C2099      C4148   1.485       .  S
C2100      C4120   1.465       .  S
C2101      C4081   1.479       .  S
C2103      C4095   1.481       .  S
Zn2104     O2108   1.966       .  S
Zn2104     O2109   2.055       .  S
Zn2104     O2113   2.059       .  S
Zn2104     O2120   2.041       .  S
Zn2105     O2108   1.933       .  S
Zn2105     O2110   1.981       .  S
Zn2105     O2112   1.982       .  S
Zn2105     O2116   2.012       .  S
Zn2106     O2108   1.950       .  S
Zn2106     O2111   2.012       .  S
Zn2106     O2114   2.058       .  S
Zn2106     O2117   2.022       .  S
Zn2107     O2108   1.942       .  S
Zn2107     O2115   2.012       .  S
Zn2107     O2118   2.027       .  S
Zn2107     O2119   2.003       .  S
O2109      C2121   1.280       .  A
O2110      C2122   1.269       .  A
O2111      C2123   1.273       .  A
O2112      C2121   1.271       .  A
O2113      C2123   1.279       .  A
O2114      C2122   1.278       .  A
O2115      C2124   1.276       .  A
O2116      C2125   1.273       .  A
O2117      C2124   1.276       .  A
O2118      C2125   1.273       .  A
O2119      C2126   1.273       .  A
O2120      C2126   1.277       .  A
C2121      C4109   1.476       .  S
C2122      C4050   1.494       .  S
C2123      C4064   1.489       .  S
C2124      C4123   1.492       .  S
C2125      C4036   1.479       .  S
C2126      C4022   1.482       .  S
Zn2127     O2131   1.939       .  S
Zn2127     O2132   2.016       .  S
Zn2127     O2143   2.023       .  S
Zn2128     O2131   1.962       .  S
Zn2128     O2133   2.048       .  S
Zn2128     O2135   2.030       .  S
Zn2128     O2139   2.061       .  S
Zn2129     O2131   1.954       .  S
Zn2129     O2137   1.996       .  S
Zn2129     O2140   2.051       .  S
Zn2130     O2131   1.915       .  S
Zn2130     O2138   1.976       .  S
Zn2130     O2141   1.955       .  S
Zn2130     O2142   1.987       .  S
O2132      C2144   1.273       .  A
O2133      C2145   1.277       .  A
O2134      C2146   1.278       .  A
O2135      C2144   1.275       .  A
O2136      C2146   1.273       .  A
O2137      C2145   1.272       .  A
O2138      C2147   1.267       .  A
O2139      C2148   1.281       .  A
O2140      C2147   1.277       .  A
O2141      C2148   1.265       .  A
O2142      C2149   1.270       .  A
O2143      C2149   1.272       .  A
C2144      C3966   1.479       .  S
C2145      C4008   1.481       .  S
C2146      C3980   1.485       .  S
C2147      C4151   1.489       .  S
C2148      C3994   1.491       .  S
C2149      C3952   1.483       .  S
Zn2150     O2154   1.950       .  S
Zn2150     O2155   2.004       .  S
Zn2150     O2159   2.046       .  S
Zn2150     O2166   2.008       .  S
Zn2151     O2154   1.962       .  S
Zn2151     O2156   2.055       .  S
Zn2151     O2158   2.066       .  S
Zn2151     O2162   2.046       .  S
Zn2152     O2154   1.928       .  S
Zn2152     O2157   1.975       .  S
Zn2152     O2160   1.964       .  S
Zn2152     O2163   1.994       .  S
Zn2153     O2154   1.944       .  S
Zn2153     O2161   2.039       .  S
Zn2153     O2164   2.025       .  S
Zn2153     O2165   1.996       .  S
O2155      C2167   1.271       .  A
O2156      C2168   1.281       .  A
O2157      C2169   1.267       .  A
O2158      C2167   1.279       .  A
O2159      C2169   1.277       .  A
O2160      C2168   1.267       .  A
O2161      C2170   1.274       .  A
O2162      C2171   1.278       .  A
O2163      C2170   1.270       .  A
O2164      C2171   1.276       .  A
O2165      C2172   1.274       .  A
O2166      C2172   1.275       .  A
C2167      C4067   1.485       .  S
C2168      C3997   1.477       .  S
C2169      C3938   1.485       .  S
C2170      C3924   1.482       .  S
C2171      C3910   1.490       .  S
C2172      C3983   1.473       .  S
Zn2173     O2177   1.938       .  S
Zn2173     O2178   2.012       .  S
Zn2173     O2182   2.010       .  S
Zn2173     O2189   2.006       .  S
Zn2174     O2177   1.924       .  S
Zn2174     O2179   1.976       .  S
Zn2174     O2181   2.009       .  S
Zn2174     O2185   1.988       .  S
Zn2175     O2177   1.956       .  S
Zn2175     O2180   2.027       .  S
Zn2175     O2183   2.039       .  S
Zn2175     O2186   2.039       .  S
Zn2176     O2177   1.953       .  S
Zn2176     O2184   1.993       .  S
Zn2176     O2187   2.047       .  S
Zn2176     O2188   2.030       .  S
O2178      C2190   1.273       .  A
O2179      C2191   1.270       .  A
O2180      C2192   1.275       .  A
O2181      C2190   1.272       .  A
O2182      C2192   1.273       .  A
O2183      C2191   1.277       .  A
O2184      C2193   1.270       .  A
O2185      C2194   1.269       .  A
O2186      C2193   1.278       .  A
O2187      C2194   1.277       .  A
O2188      C2195   1.277       .  A
O2189      C2195   1.274       .  A
C2190      C3854   1.478       .  S
C2191      C3882   1.476       .  S
C2192      C3840   1.479       .  S
C2193      C3941   1.486       .  S
C2194      C3896   1.473       .  S
C2195      C3868   1.480       .  S
Zn2196     O2200   1.919       .  S
Zn2196     O2201   1.990       .  S
Zn2196     O2205   2.009       .  S
Zn2196     O2212   1.982       .  S
Zn2197     O2200   1.952       .  S
Zn2197     O2202   2.024       .  S
Zn2197     O2204   2.050       .  S
Zn2197     O2208   2.046       .  S
Zn2198     O2200   1.934       .  S
Zn2198     O2203   2.033       .  S
Zn2198     O2206   2.000       .  S
Zn2199     O2200   1.945       .  S
Zn2199     O2210   2.006       .  S
Zn2199     O2211   2.044       .  S
O2201      C2213   1.273       .  A
O2202      C2214   1.275       .  A
O2203      C2215   1.275       .  A
O2204      C2213   1.279       .  A
O2205      C2215   1.272       .  A
O2206      C2214   1.273       .  A
O2207      C2216   1.277       .  A
O2208      C2217   1.278       .  A
O2209      C2216   1.272       .  A
O2210      C2217   1.272       .  A
O2211      C2218   1.277       .  A
O2212      C2218   1.268       .  A
C2213      C3871   1.480       .  S
C2214      C3798   1.484       .  S
C2215      C3812   1.476       .  S
C2216      C3885   1.472       .  S
C2217      C4011   1.483       .  S
C2218      C3826   1.482       .  S
Zn2219     O2223   1.949       .  S
Zn2219     O2224   1.986       .  S
Zn2219     O2228   2.046       .  S
Zn2219     O2235   2.027       .  S
Zn2220     O2223   1.959       .  S
Zn2220     O2225   2.057       .  S
Zn2220     O2227   2.045       .  S
Zn2220     O2231   2.025       .  S
Zn2221     O2223   1.923       .  S
Zn2221     O2226   1.983       .  S
Zn2221     O2229   1.974       .  S
Zn2221     O2232   1.999       .  S
Zn2222     O2223   1.938       .  S
Zn2222     O2230   2.024       .  S
Zn2222     O2233   2.012       .  S
Zn2222     O2234   1.997       .  S
O2224      C2236   1.269       .  A
O2225      C2237   1.279       .  A
O2226      C2238   1.269       .  A
O2227      C2236   1.277       .  A
O2228      C2238   1.278       .  A
O2229      C2237   1.270       .  A
O2230      C2239   1.273       .  A
O2231      C2240   1.276       .  A
O2232      C2239   1.271       .  A
O2233      C2240   1.274       .  A
O2234      C2241   1.272       .  A
O2235      C2241   1.277       .  A
C2236      C4137   1.488       .  S
C2237      C3770   1.478       .  S
C2238      C3899   1.490       .  S
C2239      C3756   1.479       .  S
C2240      C3742   1.479       .  S
C2241      C3784   1.474       .  S
Zn2242     O2246   1.951       .  S
Zn2242     O2247   1.995       .  S
Zn2242     O2251   2.041       .  S
Zn2242     O2258   2.031       .  S
Zn2243     O2246   1.961       .  S
Zn2243     O2248   2.058       .  S
Zn2243     O2250   2.050       .  S
Zn2243     O2254   2.038       .  S
Zn2244     O2246   1.922       .  S
Zn2244     O2249   1.995       .  S
Zn2244     O2252   1.979       .  S
Zn2244     O2255   2.009       .  S
Zn2245     O2246   1.932       .  S
Zn2245     O2253   2.018       .  S
Zn2245     O2256   1.996       .  S
Zn2245     O2257   1.998       .  S
O2247      C2259   1.272       .  A
O2248      C2260   1.279       .  A
O2249      C2261   1.271       .  A
O2250      C2259   1.279       .  A
O2251      C2261   1.277       .  A
O2252      C2260   1.270       .  A
O2253      C2262   1.271       .  A
O2254      C2263   1.277       .  A
O2255      C2262   1.274       .  A
O2256      C2263   1.271       .  A
O2257      C2264   1.273       .  A
O2258      C2264   1.277       .  A
C2259      C4053   1.493       .  S
C2261      C3829   1.480       .  S
C2262      C3728   1.490       .  S
C2263      C3714   1.491       .  S
C2264      C3773   1.475       .  S
Zn2265     O2269   1.927       .  S
Zn2265     O2274   1.985       .  S
Zn2265     O2281   2.006       .  S
Zn2266     O2269   1.970       .  S
Zn2266     O2271   2.062       .  S
Zn2266     O2277   2.056       .  S
Zn2267     O2269   1.949       .  S
Zn2267     O2272   2.027       .  S
Zn2267     O2275   1.987       .  S
Zn2267     O2278   2.005       .  S
Zn2268     O2269   1.933       .  S
Zn2268     O2276   2.005       .  S
Zn2268     O2279   2.000       .  S
Zn2268     O2280   2.036       .  S
O2270      C2282   1.269       .  A
O2271      C2283   1.279       .  A
O2272      C2284   1.274       .  A
O2273      C2282   1.282       .  A
O2274      C2284   1.269       .  A
O2275      C2283   1.270       .  A
O2276      C2285   1.273       .  A
O2277      C2286   1.279       .  A
O2278      C2285   1.274       .  A
O2279      C2286   1.273       .  A
O2280      C2287   1.274       .  A
O2281      C2287   1.272       .  A
C2282      C3658   1.479       .  S
C2283      C3703   1.488       .  S
C2284      C3689   1.483       .  S
C2285      C3675   1.484       .  S
C2286      C3644   1.496       .  S
C2287      C3969   1.483       .  S
Zn2288     O2292   1.951       .  S
Zn2288     O2293   2.030       .  S
Zn2288     O2297   2.040       .  S
Zn2288     O2304   2.003       .  S
Zn2289     O2292   1.929       .  S
Zn2289     O2294   2.027       .  S
Zn2289     O2296   1.986       .  S
Zn2289     O2300   1.991       .  S
Zn2290     O2292   1.909       .  S
Zn2290     O2295   1.974       .  S
Zn2290     O2298   1.978       .  S
Zn2290     O2301   1.962       .  S
Zn2291     O2292   1.954       .  S
Zn2291     O2299   2.062       .  S
Zn2291     O2302   2.045       .  S
Zn2291     O2303   2.050       .  S
O2293      C2305   1.276       .  A
O2294      C2306   1.273       .  A
O2295      C2307   1.268       .  A
O2296      C2305   1.272       .  A
O2297      C2307   1.277       .  A
O2298      C2306   1.268       .  A
O2299      C2308   1.281       .  A
O2300      C2309   1.272       .  A
O2301      C2308   1.267       .  A
O2302      C2309   1.277       .  A
O2303      C2310   1.280       .  A
O2304      C2310   1.272       .  A
C2305      C3672   1.485       .  S
C2306      C3602   1.488       .  S
C2307      C3630   1.474       .  S
C2308      C3661   1.486       .  S
C2309      C3927   1.476       .  S
C2310      C3616   1.491       .  S
Zn2311     O2315   1.932       .  S
Zn2311     O2316   2.014       .  S
Zn2311     O2320   2.012       .  S
Zn2311     O2327   2.001       .  S
Zn2312     O2315   1.952       .  S
Zn2312     O2317   2.050       .  S
Zn2312     O2319   2.040       .  S
Zn2312     O2323   2.052       .  S
Zn2313     O2315   1.917       .  S
Zn2313     O2318   1.991       .  S
Zn2313     O2321   1.958       .  S
Zn2313     O2324   1.978       .  S
Zn2314     O2315   1.943       .  S
Zn2314     O2322   2.050       .  S
Zn2314     O2325   1.991       .  S
Zn2314     O2326   2.019       .  S
O2316      C2328   1.274       .  A
O2317      C2329   1.280       .  A
O2318      C2330   1.271       .  A
O2319      C2328   1.276       .  A
O2320      C2330   1.272       .  A
O2321      C2329   1.269       .  A
O2322      C2331   1.276       .  A
O2323      C2332   1.278       .  A
O2324      C2331   1.268       .  A
O2325      C2332   1.270       .  A
O2326      C2333   1.277       .  A
O2327      C2333   1.274       .  A
C2328      C3546   1.479       .  S
C2329      C3574   1.481       .  S
C2330      C4092   1.486       .  S
C2331      C3588   1.483       .  S
C2332      C3700   1.476       .  S
Zn2334     O2338   1.942       .  S
Zn2334     O2339   2.004       .  S
Zn2334     O2343   2.027       .  S
Zn2334     O2350   2.001       .  S
Zn2335     O2338   1.940       .  S
Zn2335     O2340   2.041       .  S
Zn2335     O2342   2.009       .  S
Zn2335     O2346   2.022       .  S
Zn2336     O2338   1.920       .  S
Zn2336     O2341   1.985       .  S
Zn2336     O2344   1.998       .  S
Zn2336     O2347   1.956       .  S
Zn2337     O2338   1.959       .  S
Zn2337     O2345   2.058       .  S
Zn2337     O2348   2.026       .  S
Zn2337     O2349   2.058       .  S
O2339      C2351   1.274       .  A
O2340      C2352   1.275       .  A
O2341      C2353   1.269       .  A
O2342      C2351   1.276       .  A
O2343      C2353   1.274       .  A
O2344      C2352   1.271       .  A
O2345      C2354   1.280       .  A
O2346      C2355   1.276       .  A
O2347      C2354   1.269       .  A
O2348      C2355   1.276       .  A
O2349      C2356   1.278       .  A
O2350      C2356   1.271       .  A
C2351      C3563   1.484       .  S
C2352      C3518   1.481       .  S
C2353      C3633   1.477       .  S
C2354      C3577   1.483       .  S
C2355      C4039   1.480       .  S
C2356      C3532   1.485       .  S
Zn2357     O2361   1.949       .  S
Zn2357     O2362   2.043       .  S
Zn2357     O2366   2.000       .  S
Zn2357     O2373   2.019       .  S
Zn2358     O2361   1.928       .  S
Zn2358     O2363   1.975       .  S
Zn2358     O2365   1.982       .  S
Zn2358     O2369   2.013       .  S
Zn2359     O2361   1.960       .  S
Zn2359     O2364   2.044       .  S
Zn2359     O2367   2.046       .  S
Zn2359     O2370   2.033       .  S
Zn2360     O2361   1.935       .  S
Zn2360     O2368   2.001       .  S
Zn2360     O2371   2.012       .  S
Zn2360     O2372   2.007       .  S
O2362      C2374   1.276       .  A
O2363      C2375   1.271       .  A
O2364      C2376   1.277       .  A
O2365      C2374   1.269       .  A
O2366      C2376   1.272       .  A
O2367      C2375   1.278       .  A
O2368      C2377   1.272       .  A
O2369      C2378   1.273       .  A
O2370      C2377   1.276       .  A
O2371      C2378   1.272       .  A
O2372      C2379   1.273       .  A
O2373      C2379   1.277       .  A
C2374      C3591   1.476       .  S
C2375      C3490   1.489       .  S
C2376      C3504   1.483       .  S
C2377      C3465   1.479       .  S
C2378      C3745   1.476       .  S
C2379      C3476   1.488       .  S
Zn2380     O2384   1.926       .  S
Zn2380     O2385   2.013       .  S
Zn2380     O2389   1.969       .  S
Zn2380     O2396   1.979       .  S
Zn2381     O2384   1.934       .  S
Zn2381     O2386   2.012       .  S
Zn2381     O2388   2.032       .  S
Zn2381     O2392   2.006       .  S
Zn2382     O2384   1.957       .  S
Zn2382     O2387   2.036       .  S
Zn2382     O2390   2.026       .  S
Zn2382     O2393   2.052       .  S
Zn2383     O2384   1.947       .  S
Zn2383     O2391   2.005       .  S
Zn2383     O2394   2.016       .  S
Zn2383     O2395   2.050       .  S
O2385      C2397   1.272       .  A
O2386      C2398   1.275       .  A
O2387      C2399   1.279       .  A
O2388      C2397   1.274       .  A
O2389      C2399   1.271       .  A
O2390      C2398   1.273       .  A
O2391      C2400   1.273       .  A
O2392      C2401   1.276       .  A
O2393      C2400   1.277       .  A
O2394      C2401   1.275       .  A
O2395      C2402   1.277       .  A
O2396      C2402   1.269       .  A
C2397      C3437   1.479       .  S
C2398      C3717   1.491       .  S
C2400      C3535   1.490       .  S
C2401      C3479   1.486       .  S
C2402      C3448   1.482       .  S
Zn2403     O2407   1.921       .  S
Zn2403     O2408   2.002       .  S
Zn2403     O2412   1.966       .  S
Zn2403     O2419   1.987       .  S
Zn2404     O2407   1.934       .  S
Zn2404     O2409   1.995       .  S
Zn2404     O2411   2.027       .  S
Zn2404     O2415   1.986       .  S
Zn2405     O2407   1.965       .  S
Zn2405     O2410   2.047       .  S
Zn2405     O2413   2.052       .  S
Zn2405     O2416   2.053       .  S
Zn2406     O2407   1.948       .  S
Zn2406     O2414   1.993       .  S
Zn2406     O2417   2.013       .  S
Zn2406     O2418   2.051       .  S
O2408      C2420   1.271       .  A
O2409      C2421   1.271       .  A
O2410      C2422   1.279       .  A
O2411      C2420   1.273       .  A
O2412      C2422   1.271       .  A
O2413      C2421   1.278       .  A
O2414      C2423   1.271       .  A
O2415      C2424   1.270       .  A
O2416      C2423   1.278       .  A
O2417      C2424   1.276       .  A
O2418      C2425   1.277       .  A
O2419      C2425   1.269       .  A
C2420      C3843   1.479       .  S
C2421      C3392   1.489       .  S
C2422      C3406   1.485       .  S
C2423      C3507   1.479       .  S
C2424      C3420   1.479       .  S
C2425      C3619   1.490       .  S
Zn2426     O2430   1.937       .  S
Zn2426     O2431   1.997       .  S
Zn2426     O2435   2.009       .  S
Zn2427     O2430   1.958       .  S
Zn2427     O2432   2.042       .  S
Zn2427     O2434   2.023       .  S
Zn2427     O2438   2.041       .  S
Zn2428     O2430   1.923       .  S
Zn2428     O2433   1.991       .  S
Zn2428     O2436   1.966       .  S
Zn2428     O2439   1.979       .  S
Zn2429     O2430   1.946       .  S
Zn2429     O2437   2.041       .  S
Zn2429     O2440   1.986       .  S
O2431      C2443   1.272       .  A
O2432      C2444   1.278       .  A
O2433      C2445   1.272       .  A
O2434      C2443   1.274       .  A
O2435      C2445   1.272       .  A
O2436      C2444   1.268       .  A
O2437      C2446   1.276       .  A
O2438      C2447   1.277       .  A
O2439      C2446   1.268       .  A
O2440      C2447   1.271       .  A
O2441      C2448   1.274       .  A
O2442      C2448   1.274       .  A
C2443      C3801   1.482       .  S
C2444      C3409   1.469       .  S
C2445      C3378   1.480       .  S
C2446      C3451   1.475       .  S
C2447      C3686   1.486       .  S
C2448      C3423   1.485       .  S
Zn2449     O2453   1.955       .  S
Zn2449     O2454   2.068       .  S
Zn2449     O2458   2.013       .  S
Zn2449     O2465   2.035       .  S
Zn2450     O2453   1.928       .  S
Zn2450     O2455   1.979       .  S
Zn2450     O2457   1.967       .  S
Zn2450     O2461   2.006       .  S
Zn2451     O2453   1.965       .  S
Zn2451     O2456   2.061       .  S
Zn2451     O2459   2.060       .  S
Zn2451     O2462   2.029       .  S
Zn2452     O2453   1.934       .  S
Zn2452     O2460   1.995       .  S
Zn2452     O2463   2.009       .  S
Zn2452     O2464   1.988       .  S
O2454      C2466   1.281       .  A
O2455      C2467   1.271       .  A
O2456      C2468   1.279       .  A
O2457      C2466   1.268       .  A
O2458      C2468   1.273       .  A
O2459      C2467   1.280       .  A
O2460      C2469   1.272       .  A
O2461      C2470   1.271       .  A
O2462      C2469   1.275       .  A
O2463      C2470   1.270       .  A
O2464      C2471   1.272       .  A
O2465      C2471   1.278       .  A
C2466      C3364   1.493       .  S
C2467      C3322   1.478       .  S
C2468      C3350   1.485       .  S
C2469      C3857   1.473       .  S
C2470      C3308   1.483       .  S
C2471      C3336   1.476       .  S
Zn2472     O2476   1.944       .  S
Zn2472     O2477   2.040       .  S
Zn2472     O2481   1.993       .  S
Zn2472     O2488   2.030       .  S
Zn2473     O2476   1.924       .  S
Zn2473     O2480   2.002       .  S
Zn2473     O2484   2.012       .  S
Zn2474     O2476   1.951       .  S
Zn2474     O2479   2.030       .  S
Zn2474     O2485   2.039       .  S
Zn2475     O2476   1.929       .  S
Zn2475     O2483   2.010       .  S
Zn2475     O2486   2.025       .  S
Zn2475     O2487   2.013       .  S
O2477      C2489   1.277       .  A
O2478      C2490   1.272       .  A
O2479      C2491   1.277       .  A
O2480      C2489   1.271       .  A
O2481      C2491   1.269       .  A
O2482      C2490   1.277       .  A
O2483      C2492   1.274       .  A
O2484      C2493   1.274       .  A
O2485      C2492   1.276       .  A
O2486      C2493   1.274       .  A
O2487      C2494   1.275       .  A
O2488      C2494   1.278       .  A
C2489      C3294   1.494       .  S
C2490      C3339   1.475       .  S
C2491      C3280   1.489       .  S
C2492      C3815   1.486       .  S
C2493      C3266   1.484       .  S
C2494      C3325   1.482       .  S
Zn2495     O2499   1.921       .  S
Zn2495     O2500   1.979       .  S
Zn2495     O2504   1.978       .  S
Zn2495     O2511   1.998       .  S
Zn2496     O2499   1.958       .  S
Zn2496     O2501   2.036       .  S
Zn2496     O2503   2.044       .  S
Zn2496     O2507   2.026       .  S
Zn2497     O2499   1.951       .  S
Zn2497     O2502   2.051       .  S
Zn2497     O2505   2.003       .  S
Zn2498     O2499   1.938       .  S
Zn2498     O2509   1.995       .  S
Zn2498     O2510   2.018       .  S
O2500      C2512   1.271       .  A
O2501      C2513   1.278       .  A
O2502      C2514   1.276       .  A
O2503      C2512   1.278       .  A
O2504      C2514   1.267       .  A
O2505      C2513   1.272       .  A
O2506      C2515   1.273       .  A
O2507      C2516   1.274       .  A
O2508      C2515   1.277       .  A
O2509      C2516   1.271       .  A
O2510      C2517   1.273       .  A
O2511      C2517   1.271       .  A
C2512      C3238   1.475       .  S
C2513      C3297   1.490       .  S
C2514      C3255   1.480       .  S
C2515      C3224   1.474       .  S
C2516      C3210   1.471       .  S
C2517      C3955   1.484       .  S
Zn2518     O2522   1.924       .  S
Zn2518     O2523   1.977       .  S
Zn2518     O2527   1.975       .  S
Zn2518     O2534   2.008       .  S
Zn2519     O2522   1.965       .  S
Zn2519     O2524   2.055       .  S
Zn2519     O2526   2.054       .  S
Zn2519     O2530   2.028       .  S
Zn2520     O2522   1.947       .  S
Zn2520     O2525   2.030       .  S
Zn2520     O2528   1.989       .  S
Zn2520     O2531   2.011       .  S
Zn2521     O2522   1.938       .  S
Zn2521     O2529   2.013       .  S
Zn2521     O2532   2.008       .  S
Zn2521     O2533   2.044       .  S
O2523      C2535   1.272       .  A
O2524      C2536   1.279       .  A
O2525      C2537   1.275       .  A
O2526      C2535   1.280       .  A
O2527      C2537   1.268       .  A
O2528      C2536   1.271       .  A
O2529      C2538   1.274       .  A
O2530      C2539   1.274       .  A
O2531      C2538   1.275       .  A
O2532      C2539   1.275       .  A
O2533      C2540   1.276       .  A
O2534      C2540   1.271       .  A
C2535      C3227   1.481       .  S
C2536      C3367   1.492       .  S
C2537      C3196   1.477       .  S
C2538      C3241   1.474       .  S
C2539      C3182   1.491       .  S
C2540      C3913   1.480       .  S
Zn2541     O2545   1.946       .  S
Zn2541     O2546   2.046       .  S
Zn2541     O2550   2.012       .  S
Zn2541     O2557   2.025       .  S
Zn2542     O2545   1.929       .  S
Zn2542     O2547   2.002       .  S
Zn2542     O2549   2.010       .  S
Zn2542     O2553   1.977       .  S
Zn2543     O2545   1.949       .  S
Zn2543     O2548   2.022       .  S
Zn2543     O2551   2.034       .  S
Zn2543     O2554   1.997       .  S
Zn2544     O2545   1.958       .  S
Zn2544     O2552   2.052       .  S
Zn2544     O2555   2.061       .  S
Zn2544     O2556   2.034       .  S
O2546      C2558   1.276       .  A
O2547      C2559   1.271       .  A
O2548      C2560   1.276       .  A
O2549      C2558   1.273       .  A
O2550      C2560   1.274       .  A
O2551      C2559   1.277       .  A
O2552      C2561   1.279       .  A
O2553      C2562   1.270       .  A
O2554      C2561   1.270       .  A
O2555      C2562   1.279       .  A
O2556      C2563   1.278       .  A
O2557      C2563   1.276       .  A
C2558      C4078   1.486       .  S
C2559      C3252   1.482       .  S
C2560      C3157   1.477       .  S
C2561      C3168   1.494       .  S
C2563      C3126   1.491       .  S
Zn2564     O2568   1.918       .  S
Zn2564     O2569   1.981       .  S
Zn2564     O2573   1.973       .  S
Zn2564     O2580   2.008       .  S
Zn2565     O2568   1.962       .  S
Zn2565     O2570   2.058       .  S
Zn2565     O2572   2.066       .  S
Zn2565     O2576   2.026       .  S
Zn2566     O2568   1.949       .  S
Zn2566     O2571   2.036       .  S
Zn2566     O2574   1.989       .  S
Zn2566     O2577   2.025       .  S
Zn2567     O2568   1.932       .  S
Zn2567     O2575   1.994       .  S
Zn2567     O2578   1.994       .  S
Zn2567     O2579   2.026       .  S
O2569      C2581   1.271       .  A
O2570      C2582   1.279       .  A
O2571      C2583   1.277       .  A
O2572      C2581   1.281       .  A
O2573      C2583   1.268       .  A
O2574      C2582   1.271       .  A
O2575      C2584   1.272       .  A
O2576      C2585   1.275       .  A
O2577      C2584   1.276       .  A
O2578      C2585   1.273       .  A
O2579      C2586   1.273       .  A
O2580      C2586   1.271       .  A
C2581      C3154   1.484       .  S
C2582      C3112   1.487       .  S
C2583      C3199   1.472       .  S
C2584      C3140   1.474       .  S
C2585      C3098   1.474       .  S
C2586      C4025   1.476       .  S
Zn2587     O2591   1.951       .  S
Zn2587     O2592   2.025       .  S
Zn2587     O2596   2.061       .  S
Zn2587     O2603   2.008       .  S
Zn2588     O2591   1.939       .  S
Zn2588     O2593   2.030       .  S
Zn2588     O2595   1.994       .  S
Zn2588     O2599   2.011       .  S
Zn2589     O2591   1.926       .  S
Zn2589     O2594   1.990       .  S
Zn2589     O2597   1.993       .  S
Zn2589     O2600   1.964       .  S
Zn2590     O2591   1.963       .  S
Zn2590     O2598   2.045       .  S
Zn2590     O2601   2.032       .  S
Zn2590     O2602   2.056       .  S
O2592      C2604   1.276       .  A
O2593      C2605   1.274       .  A
O2594      C2606   1.270       .  A
O2595      C2604   1.273       .  A
O2596      C2606   1.279       .  A
O2597      C2605   1.270       .  A
O2598      C2607   1.278       .  A
O2599      C2608   1.273       .  A
O2600      C2607   1.269       .  A
O2601      C2608   1.275       .  A
O2602      C2609   1.278       .  A
O2603      C2609   1.273       .  A
C2604      C3070   1.489       .  S
C2605      C3056   1.473       .  S
C2606      C3171   1.492       .  S
C2607      C3087   1.483       .  S
C2608      C3759   1.477       .  S
C2609      C3353   1.487       .  S
Zn2610     O2614   1.923       .  S
Zn2610     O2615   1.972       .  S
Zn2610     O2619   1.997       .  S
Zn2610     O2626   1.970       .  S
Zn2611     O2614   1.954       .  S
Zn2611     O2616   2.030       .  S
Zn2611     O2618   2.044       .  S
Zn2611     O2622   2.002       .  S
Zn2612     O2614   1.933       .  S
Zn2612     O2617   2.025       .  S
Zn2612     O2620   1.986       .  S
Zn2612     O2623   1.983       .  S
Zn2613     O2614   1.967       .  S
Zn2613     O2621   2.031       .  S
Zn2613     O2624   2.051       .  S
Zn2613     O2625   2.048       .  S
O2615      C2627   1.266       .  A
O2616      C2628   1.277       .  A
O2617      C2629   1.273       .  A
O2618      C2627   1.278       .  A
O2619      C2629   1.270       .  A
O2620      C2628   1.272       .  A
O2621      C2630   1.275       .  A
O2622      C2631   1.271       .  A
O2623      C2630   1.272       .  A
O2624      C2631   1.278       .  A
O2625      C2632   1.279       .  A
O2626      C2632   1.270       .  A
C2627      C3283   1.491       .  S
C2628      C3073   1.479       .  S
C2629      C3731   1.489       .  S
C2630      C3042   1.486       .  S
C2631      C3115   1.483       .  S
Zn2633     O2637   1.933       .  S
Zn2633     O2638   2.006       .  S
Zn2633     O2642   2.023       .  S
Zn2633     O2649   2.027       .  S
Zn2634     O2637   1.943       .  S
Zn2634     O2639   2.030       .  S
Zn2634     O2641   2.005       .  S
Zn2634     O2645   1.983       .  S
Zn2635     O2637   1.923       .  S
Zn2635     O2640   1.995       .  S
Zn2635     O2643   2.006       .  S
Zn2636     O2637   1.955       .  S
Zn2636     O2647   2.040       .  S
Zn2636     O2648   2.035       .  S
O2638      C2650   1.275       .  A
O2639      C2651   1.274       .  A
O2640      C2652   1.272       .  A
O2641      C2650   1.273       .  A
O2642      C2652   1.275       .  A
O2643      C2651   1.271       .  A
O2644      C2653   1.280       .  A
O2645      C2654   1.268       .  A
O2646      C2653   1.273       .  A
O2647      C2654   1.279       .  A
O2648      C2655   1.274       .  A
O2649      C2655   1.276       .  A
C2650      C3003   1.482       .  S
C2651      C3028   1.485       .  S
C2652      C3213   1.479       .  S
C2653      C2986   1.486       .  S
C2654      C3017   1.490       .  S
C2655      C3647   1.496       .  S
Zn2656     O2660   1.960       .  S
Zn2656     O2661   2.048       .  S
Zn2656     O2665   2.040       .  S
Zn2656     O2672   2.046       .  S
Zn2657     O2660   1.954       .  S
Zn2657     O2662   2.039       .  S
Zn2657     O2664   1.993       .  S
Zn2657     O2668   2.058       .  S
Zn2658     O2660   1.933       .  S
Zn2658     O2663   1.990       .  S
Zn2658     O2666   1.976       .  S
Zn2658     O2669   2.016       .  S
Zn2659     O2660   1.923       .  S
Zn2659     O2667   1.998       .  S
Zn2659     O2670   1.990       .  S
Zn2659     O2671   1.980       .  S
O2661      C2673   1.279       .  A
O2662      C2674   1.279       .  A
O2663      C2675   1.269       .  A
O2664      C2673   1.271       .  A
O2665      C2675   1.276       .  A
O2666      C2674   1.268       .  A
O2667      C2676   1.273       .  A
O2668      C2677   1.278       .  A
O2669      C2676   1.271       .  A
O2670      C2677   1.271       .  A
O2671      C2678   1.271       .  A
O2672      C2678   1.279       .  A
C2673      C2972   1.485       .  S
C2674      C3000   1.485       .  S
C2675      C3185   1.489       .  S
C2676      C3605   1.488       .  S
C2677      C2958   1.496       .  S
C2678      C2989   1.487       .  S
Zn2679     O2683   1.932       .  S
Zn2679     O2684   1.997       .  S
Zn2679     O2688   2.033       .  S
Zn2679     O2695   2.023       .  S
Zn2680     O2683   1.948       .  S
Zn2680     O2685   2.044       .  S
Zn2680     O2687   2.022       .  S
Zn2680     O2691   1.981       .  S
Zn2681     O2683   1.917       .  S
Zn2681     O2686   1.991       .  S
Zn2681     O2689   1.983       .  S
Zn2681     O2692   1.974       .  S
Zn2682     O2683   1.949       .  S
Zn2682     O2690   2.033       .  S
Zn2682     O2693   2.030       .  S
Zn2682     O2694   2.022       .  S
O2684      C2696   1.273       .  A
O2685      C2697   1.277       .  A
O2686      C2698   1.271       .  A
O2687      C2696   1.277       .  A
O2688      C2698   1.276       .  A
O2689      C2697   1.269       .  A
O2690      C2699   1.278       .  A
O2691      C2700   1.269       .  A
O2692      C2699   1.270       .  A
O2693      C2700   1.276       .  A
O2694      C2701   1.273       .  A
O2695      C2701   1.276       .  A
C2696      C2930   1.486       .  S
C2697      C2975   1.487       .  S
C2698      C3311   1.485       .  S
C2699      C2916   1.476       .  S
C2700      C2944   1.480       .  S
C2701      C3395   1.488       .  S
Zn2702     O2706   1.921       .  S
Zn2702     O2707   1.969       .  S
Zn2702     O2711   1.986       .  S
Zn2702     O2718   1.983       .  S
Zn2703     O2706   1.955       .  S
Zn2703     O2708   2.035       .  S
Zn2703     O2710   2.039       .  S
Zn2703     O2714   2.040       .  S
Zn2704     O2706   1.934       .  S
Zn2704     O2709   2.013       .  S
Zn2704     O2712   1.999       .  S
Zn2705     O2706   1.949       .  S
Zn2705     O2716   1.994       .  S
Zn2705     O2717   2.041       .  S
O2707      C2719   1.268       .  A
O2708      C2720   1.275       .  A
O2709      C2721   1.272       .  A
O2710      C2719   1.279       .  A
O2711      C2721   1.270       .  A
O2712      C2720   1.272       .  A
O2713      C2722   1.275       .  A
O2714      C2723   1.277       .  A
O2715      C2722   1.272       .  A
O2716      C2723   1.272       .  A
O2717      C2724   1.276       .  A
O2718      C2724   1.270       .  A
C2719      C2919   1.484       .  S
C2720      C3269   1.477       .  S
C2721      C3381   1.479       .  S
C2722      C2933   1.480       .  S
C2723      C3031   1.490       .  S
C2724      C2905   1.491       .  S
Zn2725     O2729   1.934       .  S
Zn2725     O2730   2.035       .  S
Zn2725     O2734   2.002       .  S
Zn2725     O2741   1.992       .  S
Zn2726     O2729   1.921       .  S
Zn2726     O2731   1.971       .  S
Zn2726     O2733   1.992       .  S
Zn2726     O2737   1.965       .  S
Zn2727     O2729   1.956       .  S
Zn2727     O2732   2.021       .  S
Zn2727     O2735   2.048       .  S
Zn2727     O2738   2.057       .  S
Zn2728     O2729   1.950       .  S
Zn2728     O2736   1.996       .  S
Zn2728     O2739   2.040       .  S
Zn2728     O2740   2.023       .  S
O2730      C2742   1.274       .  A
O2731      C2743   1.270       .  A
O2732      C2744   1.275       .  A
O2733      C2742   1.269       .  A
O2734      C2744   1.273       .  A
O2735      C2743   1.280       .  A
O2736      C2745   1.271       .  A
O2737      C2746   1.267       .  A
O2738      C2745   1.278       .  A
O2739      C2746   1.277       .  A
O2740      C2747   1.276       .  A
O2741      C2747   1.274       .  A
C2742      C3462   1.477       .  S
C2743      C2860   1.486       .  S
C2744      C3059   1.479       .  S
C2745      C2888   1.487       .  S
C2746      C2947   1.482       .  S
C2747      C2874   1.488       .  S
Zn2748     O2752   1.941       .  S
Zn2748     O2753   2.024       .  S
Zn2748     O2757   2.024       .  S
Zn2748     O2764   1.998       .  S
Zn2749     O2752   1.927       .  S
Zn2749     O2754   1.972       .  S
Zn2749     O2756   1.985       .  S
Zn2749     O2760   1.979       .  S
Zn2750     O2752   1.957       .  S
Zn2750     O2755   2.026       .  S
Zn2750     O2758   2.047       .  S
Zn2750     O2761   2.038       .  S
Zn2751     O2752   1.951       .  S
Zn2751     O2759   1.988       .  S
Zn2751     O2762   2.026       .  S
Zn2751     O2763   2.013       .  S
O2753      C2765   1.272       .  A
O2754      C2766   1.270       .  A
O2755      C2767   1.275       .  A
O2756      C2765   1.268       .  A
O2757      C2767   1.276       .  A
O2758      C2766   1.278       .  A
O2759      C2768   1.271       .  A
O2760      C2769   1.268       .  A
O2761      C2768   1.276       .  A
O2762      C2769   1.274       .  A
O2763      C2770   1.275       .  A
O2764      C2770   1.273       .  A
C2765      C3045   1.464       .  S
C2766      C2863   1.485       .  S
C2767      C3434   1.485       .  S
C2768      C2902   1.489       .  S
C2769      C2846   1.471       .  S
Zn2771     O2775   1.960       .  S
Zn2771     O2776   2.024       .  S
Zn2771     O2780   2.000       .  S
Zn2771     O2787   2.049       .  S
Zn2772     O2775   1.934       .  S
Zn2772     O2777   2.009       .  S
Zn2772     O2779   1.985       .  S
Zn2772     O2783   2.028       .  S
Zn2773     O2775   1.957       .  S
Zn2773     O2778   2.057       .  S
Zn2773     O2781   2.041       .  S
Zn2773     O2784   2.048       .  S
Zn2774     O2775   1.925       .  S
Zn2774     O2782   1.977       .  S
Zn2774     O2785   2.007       .  S
Zn2774     O2786   1.970       .  S
O2776      C2788   1.275       .  A
O2777      C2789   1.274       .  A
O2778      C2790   1.278       .  A
O2779      C2788   1.274       .  A
O2780      C2790   1.272       .  A
O2781      C2789   1.276       .  A
O2782      C2791   1.271       .  A
O2783      C2792   1.274       .  A
O2784      C2791   1.280       .  A
O2785      C2792   1.271       .  A
O2786      C2793   1.265       .  A
O2787      C2793   1.277       .  A
C2788      C2832   1.487       .  S
C2789      C3129   1.495       .  S
C2790      C2891   1.485       .  S
C2792      C3549   1.480       .  S
C2793      C3014   1.489       .  S
Zn2794     O2798   1.957       .  S
Zn2794     O2799   2.053       .  S
Zn2794     O2803   2.061       .  S
Zn2794     O2810   2.041       .  S
Zn2795     O2798   1.921       .  S
Zn2795     O2800   1.976       .  S
Zn2795     O2802   1.966       .  S
Zn2795     O2806   1.990       .  S
Zn2796     O2798   1.948       .  S
Zn2796     O2801   1.996       .  S
Zn2796     O2804   2.030       .  S
Zn2796     O2807   2.017       .  S
Zn2797     O2798   1.930       .  S
Zn2797     O2805   1.983       .  S
Zn2797     O2808   2.028       .  S
Zn2797     O2809   2.008       .  S
O2799      C2811   1.280       .  A
O2800      C2812   1.268       .  A
O2801      C2813   1.272       .  A
O2802      C2811   1.268       .  A
O2803      C2813   1.279       .  A
O2804      C2812   1.275       .  A
O2805      C2814   1.270       .  A
O2806      C2815   1.270       .  A
O2807      C2814   1.275       .  A
O2808      C2815   1.272       .  A
O2809      C2816   1.274       .  A
O2810      C2816   1.277       .  A
C2811      C2821   1.488       .  S
C2812      C2849   1.470       .  S
C2813      C2961   1.501       .  S
C2814      C2835   1.477       .  S
C2815      C3101   1.476       .  S
C2816      C3521   1.481       .  S
C2817      C2818   1.396       .  A
C2817      C2822   1.399       .  A
C2817      H2824   1.084       .  S
C2818      C2819   1.416       .  A
C2819      C2820   1.406       .  A
C2819      N2826   1.439       .  S
C2820      C2821   1.404       .  A
C2820      H2825   1.083       .  S
C2821      C2822   1.421       .  A
C2822      N2823   1.433       .  S
N2823      H2827   1.046       .  S
N2823      H2828   1.046       .  S
N2826      H2830   1.046       .  S
C2831      C2832   1.407       .  A
C2831      C2836   1.391       .  A
C2831      H2838   1.084       .  S
C2832      C2833   1.420       .  A
C2833      C2834   1.399       .  A
C2833      N2840   1.432       .  S
C2834      C2835   1.405       .  A
C2834      H2839   1.084       .  S
C2835      C2836   1.414       .  A
C2836      N2837   1.434       .  S
N2837      H2841   1.046       .  S
N2837      H2842   1.044       .  S
N2840      H2843   1.045       .  S
N2840      H2844   1.045       .  S
C2845      C2846   1.402       .  A
C2845      C2850   1.398       .  A
C2845      H2852   1.084       .  S
C2846      C2847   1.412       .  A
C2847      C2848   1.402       .  A
C2847      N2854   1.438       .  S
C2848      C2849   1.403       .  A
C2848      H2853   1.084       .  S
C2849      C2850   1.413       .  A
C2850      N2851   1.432       .  S
N2851      H2855   1.045       .  S
N2851      H2856   1.046       .  S
N2854      H2857   1.046       .  S
N2854      H2858   1.046       .  S
C2859      C2860   1.411       .  A
C2859      C2864   1.405       .  A
C2859      H2866   1.083       .  S
C2860      C2861   1.410       .  A
C2861      C2862   1.403       .  A
C2861      N2868   1.438       .  S
C2862      C2863   1.409       .  A
C2862      H2867   1.083       .  S
C2863      C2864   1.410       .  A
C2864      N2865   1.438       .  S
N2865      H2869   1.046       .  S
N2865      H2870   1.045       .  S
N2868      H2871   1.046       .  S
N2868      H2872   1.046       .  S
C2873      C2874   1.409       .  A
C2873      C2878   1.400       .  A
C2873      H2880   1.083       .  S
C2874      C2875   1.417       .  A
C2875      C2876   1.406       .  A
C2875      N2882   1.438       .  S
C2876      C2877   1.403       .  A
C2876      H2881   1.084       .  S
C2877      C2878   1.407       .  A
C2878      N2879   1.439       .  S
N2879      H2883   1.046       .  S
N2882      H2885   1.046       .  S
N2882      H2886   1.046       .  S
C2887      C2888   1.405       .  A
C2887      C2892   1.405       .  A
C2887      H2894   1.084       .  S
C2888      C2889   1.417       .  A
C2889      C2890   1.405       .  A
C2889      N2896   1.432       .  S
C2890      C2891   1.405       .  A
C2890      H2895   1.084       .  S
C2891      C2892   1.413       .  A
C2892      N2893   1.438       .  S
N2893      H2897   1.046       .  S
N2893      H2898   1.046       .  S
N2896      H2899   1.045       .  S
N2896      H2900   1.045       .  S
C2901      C2902   1.410       .  A
C2901      C2906   1.406       .  A
C2901      H2908   1.083       .  S
C2902      C2903   1.411       .  A
C2903      C2904   1.405       .  A
C2903      N2910   1.438       .  S
C2904      C2905   1.411       .  A
C2904      H2909   1.083       .  S
C2905      C2906   1.412       .  A
C2906      N2907   1.438       .  S
N2910      H2913   1.046       .  S
N2910      H2914   1.046       .  S
C2915      C2916   1.398       .  A
C2915      C2920   1.399       .  A
C2915      H2922   1.084       .  S
C2916      C2917   1.416       .  A
C2917      C2918   1.403       .  A
C2917      N2924   1.438       .  S
C2918      C2919   1.402       .  A
C2918      H2923   1.083       .  S
C2919      C2920   1.418       .  A
C2920      N2921   1.433       .  S
N2921      H2925   1.046       .  S
N2921      H2926   1.046       .  S
N2924      H2927   1.045       .  S
N2924      H2928   1.046       .  S
C2929      C2930   1.407       .  A
C2929      C2934   1.404       .  A
C2929      H2936   1.084       .  S
C2930      C2931   1.415       .  A
C2931      C2932   1.399       .  A
C2931      N2938   1.433       .  S
C2932      C2933   1.403       .  A
C2932      H2937   1.084       .  S
C2933      C2934   1.410       .  A
C2934      N2935   1.432       .  S
N2935      H2939   1.046       .  S
N2935      H2940   1.046       .  S
N2938      H2941   1.046       .  S
N2938      H2942   1.046       .  S
C2943      C2944   1.400       .  A
C2943      C2948   1.403       .  A
C2943      H2950   1.084       .  S
C2944      C2945   1.418       .  A
C2945      C2946   1.404       .  A
C2945      N2952   1.439       .  S
C2946      C2947   1.400       .  A
C2946      H2951   1.084       .  S
C2947      C2948   1.420       .  A
C2948      N2949   1.439       .  S
N2949      H2953   1.046       .  S
N2949      H2954   1.046       .  S
N2952      H2955   1.046       .  S
N2952      H2956   1.046       .  S
C2957      C2958   1.410       .  A
C2957      C2962   1.402       .  A
C2957      H2964   1.084       .  S
C2958      C2959   1.416       .  A
C2959      C2960   1.402       .  A
C2959      N2966   1.432       .  S
C2960      C2961   1.413       .  A
C2960      H2965   1.083       .  S
C2961      C2962   1.418       .  A
C2962      N2963   1.432       .  S
N2963      H2967   1.045       .  S
N2963      H2968   1.045       .  S
N2966      H2969   1.045       .  S
N2966      H2970   1.045       .  S
C2971      C2972   1.409       .  A
C2971      C2976   1.407       .  A
C2971      H2978   1.084       .  S
C2972      C2973   1.408       .  A
C2973      C2974   1.405       .  A
C2973      N2980   1.438       .  S
C2974      C2975   1.410       .  A
C2974      H2979   1.082       .  S
C2975      C2976   1.410       .  A
C2976      N2977   1.438       .  S
N2977      H2981   1.046       .  S
N2977      H2982   1.046       .  S
N2980      H2983   1.046       .  S
N2980      H2984   1.046       .  S
C2985      C2986   1.409       .  A
C2985      C2990   1.404       .  A
C2985      H2992   1.083       .  S
C2986      C2987   1.410       .  A
C2987      C2988   1.406       .  A
C2987      N2994   1.438       .  S
C2988      C2989   1.411       .  A
C2988      H2993   1.083       .  S
C2989      C2990   1.411       .  A
C2990      N2991   1.438       .  S
N2991      H2995   1.046       .  S
N2991      H2996   1.045       .  S
N2994      H2997   1.046       .  S
N2994      H2998   1.046       .  S
C2999      C3000   1.404       .  A
C2999      C3004   1.399       .  A
C2999      H3006   1.084       .  S
C3000      C3001   1.421       .  A
C3001      C3002   1.395       .  A
C3001      N3008   1.433       .  S
C3002      C3003   1.402       .  A
C3002      H3007   1.084       .  S
C3003      C3004   1.419       .  A
C3004      N3005   1.432       .  S
N3005      H3009   1.045       .  S
N3005      H3010   1.045       .  S
N3008      H3011   1.045       .  S
N3008      H3012   1.045       .  S
C3013      C3014   1.404       .  A
C3013      C3018   1.401       .  A
C3013      H3020   1.084       .  S
C3014      C3015   1.423       .  A
C3015      C3016   1.396       .  A
C3015      N3022   1.433       .  S
C3016      C3017   1.402       .  A
C3016      H3021   1.084       .  S
C3017      C3018   1.423       .  A
C3018      N3019   1.433       .  S
N3019      H3023   1.045       .  S
N3019      H3024   1.043       .  S
N3022      H3025   1.044       .  S
N3022      H3026   1.045       .  S
C3027      C3028   1.406       .  A
C3027      H3034   1.084       .  S
C3028      C3029   1.412       .  A
C3029      N3036   1.438       .  S
C3030      C3031   1.408       .  A
C3030      H3035   1.083   1_556  S
C3031      C3032   1.415       .  A
C3032      N3033   1.438       .  S
N3033      H3037   1.046       .  S
N3033      H3038   1.046       .  S
N3036      H3039   1.046       .  S
N3036      H3040   1.046       .  S
C3041      C3042   1.409       .  A
C3041      C3046   1.392       .  A
C3041      H3048   1.084       .  S
C3042      C3043   1.418       .  A
C3043      C3044   1.409       .  A
C3043      N3050   1.438       .  S
C3044      C3045   1.401       .  A
C3044      H3049   1.084       .  S
C3045      C3046   1.405       .  A
C3046      N3047   1.433       .  S
N3047      H3051   1.045       .  S
N3047      H3052   1.046       .  S
N3050      H3053   1.045       .  S
N3050      H3054   1.046       .  S
C3055      C3056   1.402       .  A
C3055      C3060   1.403       .  A
C3055      H3062   1.084       .  S
C3056      C3057   1.410       .  A
C3057      C3058   1.406       .  A
C3057      N3064   1.438       .  S
C3058      C3059   1.405       .  A
C3058      H3063   1.084       .  S
C3059      C3060   1.413       .  A
C3060      N3061   1.439       .  S
N3061      H3065   1.046       .  S
N3061      H3066   1.046       .  S
N3064      H3067   1.045       .  S
N3064      H3068   1.046       .  S
C3069      C3070   1.407       .  A
C3069      C3074   1.398       .  A
C3069      H3076   1.084       .  S
C3070      C3071   1.419       .  A
C3071      C3072   1.408       .  A
C3071      N3078   1.438       .  S
C3072      C3073   1.403       .  A
C3072      H3077   1.084       .  S
C3073      C3074   1.408       .  A
C3074      N3075   1.433       .  S
N3075      H3079   1.046       .  S
N3075      H3080   1.046       .  S
N3078      H3081   1.045       .  S
N3078      H3082   1.046       .  S
C3083      C3084   1.412       .  A
C3083      C3088   1.403       .  A
C3083      H3090   1.083       .  S
C3084      C3085   1.409       .  A
C3085      C3086   1.403       .  A
C3085      N3092   1.438       .  S
C3086      C3087   1.410       .  A
C3086      H3091   1.083       .  S
C3087      C3088   1.408       .  A
C3088      N3089   1.438       .  S
N3089      H3093   1.046       .  S
N3089      H3094   1.046       .  S
N3092      H3096   1.046       .  S
C3097      C3098   1.403       .  A
C3097      C3102   1.401       .  A
C3097      H3104   1.084       .  S
C3098      C3099   1.411       .  A
C3099      C3100   1.401       .  A
C3099      N3106   1.439       .  S
C3100      C3101   1.403       .  A
C3100      H3105   1.084       .  S
C3101      C3102   1.415       .  A
C3102      N3103   1.433       .  S
N3103      H3107   1.045       .  S
N3103      H3108   1.046       .  S
N3106      H3109   1.046       .  S
N3106      H3110   1.046       .  S
C3111      C3112   1.406       .  A
C3111      C3116   1.406       .  A
C3111      H3118   1.084       .  S
C3112      C3113   1.413       .  A
C3113      C3114   1.410       .  A
C3113      N3120   1.438       .  S
C3114      C3115   1.405       .  A
C3114      H3119   1.084       .  S
C3115      C3116   1.412       .  A
C3116      N3117   1.439       .  S
N3117      H3121   1.046       .  S
N3117      H3122   1.045       .  S
N3120      H3123   1.046       .  S
N3120      H3124   1.046       .  S
C3125      C3126   1.406       .  A
C3125      C3130   1.402       .  A
C3125      H3132   1.084       .  S
C3126      C3127   1.415       .  A
C3127      C3128   1.407       .  A
C3127      N3134   1.439       .  S
C3128      C3129   1.409       .  A
C3128      H3133   1.083       .  S
C3129      C3130   1.419       .  A
C3130      N3131   1.432       .  S
N3131      H3135   1.046       .  S
N3131      H3136   1.045       .  S
N3134      H3137   1.046       .  S
N3134      H3138   1.046       .  S
C3139      C3140   1.400       .  A
C3139      C3144   1.397       .  A
C3139      H3146   1.084       .  S
C3140      C3141   1.414       .  A
C3141      C3142   1.409       .  A
C3141      N3148   1.438       .  S
C3142      C3143   1.403       .  A
C3142      H3147   1.084       .  S
C3143      C3144   1.411       .  A
C3144      N3145   1.433       .  S
N3145      H3149   1.046       .  S
N3148      H3151   1.046       .  S
N3148      H3152   1.046       .  S
C3153      C3154   1.404       .  A
C3153      C3158   1.403       .  A
C3153      H3160   1.084       .  S
C3154      C3155   1.417       .  A
C3155      C3156   1.404       .  A
C3155      N3162   1.438       .  S
C3156      C3157   1.400       .  A
C3156      H3161   1.084       .  S
C3157      C3158   1.416       .  A
C3158      N3159   1.433       .  S
N3159      H3163   1.045       .  S
N3159      H3164   1.046       .  S
N3162      H3165   1.046       .  S
N3162      H3166   1.046       .  S
C3167      C3168   1.403       .  A
C3167      C3172   1.407       .  A
C3167      H3174   1.083       .  S
C3168      C3169   1.419       .  A
C3169      C3170   1.410       .  A
C3169      N3176   1.438       .  S
C3170      C3171   1.403       .  A
C3170      H3175   1.083       .  S
C3171      C3172   1.418       .  A
C3172      N3173   1.438       .  S
N3173      H3177   1.046       .  S
N3173      H3178   1.046       .  S
N3176      H3179   1.046       .  S
N3176      H3180   1.046       .  S
C3181      C3182   1.405       .  A
C3181      C3186   1.396   1_655  A
C3181      H3188   1.084       .  S
C3182      C3183   1.419       .  A
C3183      C3184   1.402   1_655  A
C3183      N3190   1.432       .  S
C3184      C3185   1.406       .  A
C3184      H3189   1.084       .  S
C3185      C3186   1.420       .  A
C3186      N3187   1.434       .  S
N3187      H3191   1.046       .  S
N3187      H3192   1.045       .  S
N3190      H3193   1.045       .  S
N3190      H3194   1.046       .  S
C3195      C3196   1.400       .  A
C3195      C3200   1.397       .  A
C3195      H3202   1.084       .  S
C3196      C3197   1.417       .  A
C3197      C3198   1.403       .  A
C3197      N3204   1.439       .  S
C3198      C3199   1.398       .  A
C3198      H3203   1.084       .  S
C3199      C3200   1.418       .  A
C3200      N3201   1.434       .  S
N3201      H3205   1.044       .  S
N3201      H3206   1.046       .  S
N3204      H3207   1.046       .  S
N3204      H3208   1.046       .  S
C3209      C3210   1.402       .  A
C3209      C3214   1.405   1_655  A
C3209      H3216   1.084       .  S
C3210      C3211   1.411       .  A
C3211      C3212   1.398   1_655  A
C3211      N3218   1.433       .  S
C3212      C3213   1.406       .  A
C3212      H3217   1.084       .  S
C3213      C3214   1.413       .  A
C3214      N3215   1.438       .  S
N3215      H3219   1.046       .  S
N3215      H3220   1.046       .  S
N3218      H3221   1.046       .  S
N3218      H3222   1.045       .  S
C3223      C3224   1.406       .  A
C3223      C3228   1.409       .  A
C3223      H3230   1.084       .  S
C3224      C3225   1.408       .  A
C3225      C3226   1.395       .  A
C3225      N3232   1.433       .  S
C3226      C3227   1.408       .  A
C3226      H3231   1.084       .  S
C3227      C3228   1.411       .  A
C3228      N3229   1.437       .  S
N3229      H3233   1.046       .  S
N3229      H3234   1.046       .  S
N3232      H3235   1.046       .  S
N3232      H3236   1.045       .  S
C3237      C3238   1.406       .  A
C3237      C3242   1.404       .  A
C3237      H3244   1.084       .  S
C3238      C3239   1.411       .  A
C3239      C3240   1.399       .  A
C3239      N3246   1.432       .  S
C3240      C3241   1.405       .  A
C3240      H3245   1.084       .  S
C3241      C3242   1.409       .  A
C3242      N3243   1.438       .  S
N3243      H3247   1.046       .  S
N3243      H3248   1.046       .  S
N3246      H3249   1.046       .  S
N3246      H3250   1.045       .  S
C3251      C3252   1.399       .  A
C3251      C3256   1.395       .  A
C3251      H3258   1.084       .  S
C3252      C3253   1.418       .  A
C3253      C3254   1.410       .  A
C3253      N3260   1.438       .  S
C3254      C3255   1.402       .  A
C3254      H3259   1.084       .  S
C3255      C3256   1.419       .  A
C3256      N3257   1.434       .  S
N3257      H3261   1.044       .  S
N3257      H3262   1.046       .  S
N3260      H3263   1.046       .  S
N3260      H3264   1.046       .  S
C3265      C3266   1.405       .  A
C3265      C3270   1.404   1_655  A
C3266      C3267   1.418       .  A
C3267      C3268   1.401   1_655  A
C3267      N3274   1.432       .  S
C3268      C3269   1.402       .  A
C3268      H3273   1.084       .  S
C3269      C3270   1.411       .  A
N3271      H3275   1.046       .  S
N3271      H3276   1.046       .  S
N3274      H3277   1.046       .  S
N3274      H3278   1.045       .  S
C3279      C3280   1.401       .  A
C3279      C3284   1.396       .  A
C3279      H3286   1.084       .  S
C3280      C3281   1.423       .  A
C3281      C3282   1.400       .  A
C3281      N3288   1.433       .  S
C3282      C3283   1.404       .  A
C3282      H3287   1.084       .  S
C3283      C3284   1.425       .  A
C3284      N3285   1.433       .  S
N3285      H3289   1.045       .  S
N3285      H3290   1.045       .  S
N3288      H3291   1.046       .  S
N3288      H3292   1.045       .  S
C3293      C3298   1.404       .  A
C3293      H3300   1.084       .  S
C3294      C3295   1.420   1_556  A
C3295      C3296   1.406       .  A
C3295      N3302   1.439       .  S
C3296      H3301   1.083       .  S
C3297      C3298   1.416       .  A
C3298      N3299   1.433       .  S
N3299      H3303   1.046       .  S
N3299      H3304   1.046       .  S
N3302      H3305   1.046       .  S
N3302      H3306   1.046       .  S
C3307      C3308   1.404       .  A
C3307      C3312   1.403   1_655  A
C3307      H3314   1.084       .  S
C3308      C3309   1.414       .  A
C3309      C3310   1.406   1_655  A
C3309      N3316   1.438       .  S
C3310      C3311   1.404       .  A
C3310      H3315   1.083       .  S
C3311      C3312   1.416       .  A
C3312      N3313   1.439       .  S
N3313      H3317   1.046       .  S
N3313      H3318   1.046       .  S
N3316      H3319   1.046       .  S
N3316      H3320   1.046       .  S
C3321      C3322   1.406       .  A
C3321      C3326   1.404       .  A
C3321      H3328   1.084       .  S
C3322      C3323   1.408       .  A
C3323      C3324   1.409       .  A
C3323      N3330   1.437       .  S
C3324      C3325   1.408       .  A
C3324      H3329   1.084       .  S
C3325      C3326   1.410       .  A
C3326      N3327   1.438       .  S
N3327      H3331   1.046       .  S
N3327      H3332   1.046       .  S
N3330      H3333   1.045       .  S
N3330      H3334   1.046       .  S
C3335      C3336   1.404       .  A
C3335      C3340   1.401       .  A
C3335      H3342   1.084       .  S
C3336      C3337   1.412       .  A
C3337      C3338   1.402       .  A
C3337      N3344   1.439       .  S
C3338      C3339   1.403       .  A
C3338      H3343   1.084       .  S
C3339      C3340   1.414       .  A
C3340      N3341   1.432       .  S
N3341      H3345   1.045       .  S
N3341      H3346   1.046       .  S
N3344      H3347   1.046       .  S
N3344      H3348   1.046       .  S
C3349      C3350   1.400       .  A
C3349      C3354   1.410       .  A
C3349      H3356   1.084       .  S
C3350      C3351   1.419       .  A
C3351      C3352   1.403       .  A
C3351      N3358   1.433       .  S
C3352      C3353   1.401       .  A
C3352      H3357   1.084       .  S
C3353      C3354   1.418       .  A
C3354      N3355   1.438       .  S
N3355      H3359   1.046       .  S
N3355      H3360   1.046       .  S
N3358      H3361   1.046       .  S
N3358      H3362   1.044       .  S
C3363      C3364   1.413       .  A
C3363      C3368   1.406       .  A
C3363      H3370   1.083       .  S
C3364      C3365   1.410       .  A
C3365      C3366   1.407       .  A
C3365      N3372   1.438       .  S
C3366      C3367   1.412       .  A
C3366      H3371   1.083       .  S
C3367      C3368   1.411       .  A
C3368      N3369   1.438       .  S
N3369      H3373   1.046       .  S
N3369      H3374   1.046       .  S
N3372      H3375   1.046       .  S
N3372      H3376   1.046       .  S
C3377      C3378   1.403       .  A
C3377      C3382   1.399       .  A
C3377      H3384   1.084       .  S
C3378      C3379   1.414       .  A
C3379      C3380   1.405       .  A
C3380      C3381   1.405       .  A
C3381      C3382   1.413       .  A
C3382      N3383   1.439       .  S
N3383      H3387   1.046       .  S
N3383      H3388   1.046       .  S
N3386      H3389   1.046       .  S
N3386      H3390   1.046       .  S
C3391      C3392   1.405       .  A
C3391      C3396   1.404       .  A
C3391      H3398   1.084       .  S
C3392      C3393   1.420       .  A
C3393      C3394   1.398       .  A
C3393      N3400   1.434       .  S
C3394      C3395   1.403       .  A
C3394      H3399   1.084       .  S
C3395      C3396   1.419       .  A
C3396      N3397   1.432       .  S
N3397      H3401   1.046       .  S
N3397      H3402   1.045       .  S
N3400      H3403   1.044       .  S
N3400      H3404   1.046       .  S
C3405      C3406   1.411       .  A
C3405      C3410   1.401       .  A
C3405      H3412   1.083       .  S
C3406      C3407   1.414       .  A
C3407      C3408   1.405       .  A
C3407      N3414   1.438       .  S
C3408      C3409   1.405       .  A
C3408      H3413   1.084       .  S
C3409      C3410   1.403       .  A
C3410      N3411   1.438       .  S
N3411      H3415   1.046       .  S
N3411      H3416   1.046       .  S
N3414      H3417   1.046       .  S
N3414      H3418   1.046       .  S
C3419      C3420   1.404       .  A
C3419      C3424   1.397       .  A
C3419      H3426   1.084       .  S
C3420      C3421   1.416       .  A
C3421      C3422   1.394       .  A
C3421      N3428   1.434       .  S
C3422      C3423   1.406       .  A
C3422      H3427   1.084       .  S
C3423      C3424   1.419       .  A
C3424      N3425   1.433       .  S
N3425      H3429   1.045       .  S
N3425      H3430   1.045       .  S
N3428      H3431   1.044       .  S
N3428      H3432   1.046       .  S
C3433      C3434   1.405       .  A
C3433      C3438   1.400       .  A
C3433      H3440   1.084       .  S
C3434      C3435   1.415       .  A
C3435      C3436   1.408       .  A
C3435      N3442   1.438       .  S
C3436      C3437   1.403       .  A
C3436      H3441   1.084       .  S
C3437      C3438   1.413       .  A
C3438      N3439   1.433       .  S
N3439      H3443   1.045       .  S
N3439      H3444   1.046       .  S
N3442      H3445   1.046       .  S
N3442      H3446   1.046       .  S
C3447      C3448   1.409       .  A
C3447      C3452   1.401       .  A
C3447      H3454   1.084       .  S
C3448      C3449   1.408       .  A
C3449      C3450   1.406       .  A
C3449      N3456   1.438       .  S
C3450      C3451   1.408       .  A
C3450      H3455   1.084       .  S
C3451      C3452   1.413       .  A
C3452      N3453   1.438       .  S
N3456      H3459   1.046       .  S
N3456      H3460   1.046       .  S
C3461      C3462   1.401       .  A
C3461      C3466   1.405       .  A
C3461      H3468   1.084       .  S
C3462      C3463   1.414       .  A
C3463      C3464   1.406       .  A
C3463      N3470   1.438       .  S
C3464      C3465   1.403       .  A
C3464      H3469   1.084       .  S
C3465      C3466   1.413       .  A
C3466      N3467   1.438       .  S
N3467      H3471   1.046       .  S
N3467      H3472   1.046       .  S
N3470      H3473   1.045       .  S
N3470      H3474   1.046       .  S
C3475      C3476   1.406       .  A
C3475      C3480   1.398       .  A
C3475      H3482   1.084       .  S
C3476      C3477   1.419       .  A
C3477      C3478   1.397       .  A
C3477      N3484   1.433       .  S
C3478      C3479   1.405       .  A
C3478      H3483   1.084       .  S
C3479      C3480   1.418       .  A
C3480      N3481   1.433       .  S
N3481      H3485   1.045       .  S
N3481      H3486   1.046       .  S
N3484      H3487   1.044       .  S
N3484      H3488   1.046       .  S
C3489      C3490   1.412       .  A
C3489      C3494   1.404       .  A
C3489      H3496   1.083       .  S
C3490      C3491   1.413       .  A
C3491      C3492   1.405       .  A
C3491      N3498   1.438       .  S
C3492      C3493   1.408       .  A
C3492      H3497   1.084       .  S
C3493      C3494   1.405       .  A
C3494      N3495   1.438       .  S
N3495      H3499   1.046       .  S
N3498      H3501   1.045       .  S
N3498      H3502   1.046       .  S
C3503      C3504   1.408       .  A
C3503      C3508   1.407       .  A
C3503      H3510   1.084       .  S
C3504      C3505   1.413       .  A
C3505      C3506   1.401       .  A
C3505      N3512   1.433       .  S
C3506      C3507   1.407       .  A
C3506      H3511   1.084       .  S
C3507      C3508   1.407       .  A
C3508      N3509   1.438       .  S
N3509      H3513   1.046       .  S
N3509      H3514   1.046       .  S
N3512      H3515   1.046       .  S
N3512      H3516   1.045       .  S
C3517      C3518   1.405       .  A
C3517      C3522   1.410       .  A
C3517      H3524   1.084       .  S
C3518      C3519   1.412       .  A
C3519      C3520   1.403       .  A
C3519      N3526   1.439       .  S
C3520      C3521   1.403       .  A
C3520      H3525   1.084       .  S
C3521      C3522   1.413       .  A
C3522      N3523   1.437       .  S
N3523      H3527   1.046       .  S
N3523      H3528   1.046       .  S
N3526      H3529   1.046       .  S
N3526      H3530   1.046       .  S
C3531      C3532   1.405       .  A
C3531      C3536   1.406   1_565  A
C3531      H3538   1.084       .  S
C3532      C3533   1.412       .  A
C3533      C3534   1.406   1_565  A
C3533      N3540   1.438       .  S
C3534      C3535   1.406       .  A
C3534      H3539   1.084       .  S
C3535      C3536   1.418       .  A
C3536      N3537   1.432       .  S
N3537      H3541   1.045       .  S
N3537      H3542   1.045       .  S
N3540      H3543   1.046       .  S
N3540      H3544   1.046       .  S
C3545      C3546   1.403       .  A
C3545      C3550   1.407       .  A
C3545      H3552   1.084       .  S
C3546      C3547   1.412       .  A
C3547      C3548   1.407       .  A
C3547      N3554   1.438       .  S
C3548      C3549   1.403       .  A
C3548      H3553   1.084       .  S
C3549      C3550   1.413       .  A
C3550      N3551   1.438       .  S
N3551      H3555   1.046       .  S
N3551      H3556   1.046       .  S
N3554      H3557   1.046       .  S
N3554      H3558   1.046       .  S
C3559      C3560   1.404       .  A
C3559      C3564   1.405       .  A
C3559      H3566   1.084       .  S
C3560      C3561   1.411       .  A
C3561      C3562   1.399       .  A
C3561      N3568   1.433       .  S
C3562      C3563   1.404       .  A
C3562      H3567   1.084       .  S
C3563      C3564   1.417       .  A
C3564      N3565   1.438       .  S
N3565      H3569   1.046       .  S
N3565      H3570   1.046       .  S
N3568      H3572   1.046       .  S
C3573      C3574   1.411       .  A
C3573      C3578   1.405       .  A
C3573      H3580   1.084       .  S
C3574      C3575   1.407       .  A
C3575      C3576   1.402       .  A
C3575      N3582   1.438       .  S
C3576      C3577   1.411       .  A
C3576      H3581   1.083       .  S
C3577      C3578   1.408       .  A
C3578      N3579   1.438       .  S
N3579      H3583   1.046       .  S
N3579      H3584   1.046       .  S
N3582      H3585   1.045       .  S
N3582      H3586   1.046       .  S
C3587      C3588   1.411       .  A
C3587      C3592   1.406   1_565  A
C3587      H3594   1.084       .  S
C3588      C3589   1.411       .  A
C3589      C3590   1.399   1_565  A
C3589      N3596   1.432       .  S
C3590      C3591   1.407       .  A
C3590      H3595   1.084       .  S
C3591      C3592   1.407       .  A
C3592      N3593   1.438       .  S
N3593      H3597   1.046   1_545  S
N3593      H3598   1.045       .  S
N3596      H3599   1.045       .  S
N3596      H3600   1.045       .  S
C3601      C3602   1.406       .  A
C3601      C3606   1.408       .  A
C3601      H3608   1.083       .  S
C3602      C3603   1.416       .  A
C3603      C3604   1.399       .  A
C3603      N3610   1.439       .  S
C3604      C3605   1.404       .  A
C3604      H3609   1.083       .  S
C3605      C3606   1.417       .  A
C3606      N3607   1.438       .  S
N3607      H3611   1.046       .  S
N3607      H3612   1.046       .  S
N3610      H3613   1.046       .  S
N3610      H3614   1.046       .  S
C3615      C3616   1.403       .  A
C3615      C3620   1.406   1_565  A
C3615      H3622   1.083       .  S
C3616      C3617   1.418       .  A
C3617      C3618   1.409   1_565  A
C3617      N3624   1.438       .  S
C3618      C3619   1.404       .  A
C3618      H3623   1.084       .  S
C3619      C3620   1.417       .  A
C3620      N3621   1.439       .  S
N3621      H3625   1.046       .  S
N3621      H3626   1.046       .  S
N3624      H3627   1.046       .  S
N3624      H3628   1.046       .  S
C3629      C3630   1.406       .  A
C3629      C3634   1.397       .  A
C3629      H3636   1.084       .  S
C3630      C3631   1.407       .  A
C3631      C3632   1.404       .  A
C3631      N3638   1.438       .  S
C3632      C3633   1.408       .  A
C3632      H3637   1.084       .  S
C3633      C3634   1.411       .  A
C3634      N3635   1.433       .  S
N3635      H3639   1.045       .  S
N3635      H3640   1.046       .  S
N3638      H3641   1.046       .  S
N3638      H3642   1.046       .  S
C3643      C3644   1.407       .  A
C3643      C3648   1.413       .  A
C3644      C3645   1.418       .  A
C3645      C3646   1.404       .  A
C3645      N3652   1.439       .  S
C3646      C3647   1.404       .  A
C3646      H3651   1.083       .  S
C3647      C3648   1.418       .  A
N3649      H3653   1.046       .  S
N3649      H3654   1.046       .  S
N3652      H3655   1.046       .  S
N3652      H3656   1.046       .  S
C3657      C3658   1.397       .  A
C3657      C3662   1.406       .  A
C3657      H3664   1.084       .  S
C3658      C3659   1.415       .  A
C3659      C3660   1.400       .  A
C3659      N3666   1.434       .  S
C3660      C3661   1.400       .  A
C3660      H3665   1.084       .  S
C3661      C3662   1.424       .  A
C3662      N3663   1.439       .  S
N3663      H3667   1.046       .  S
N3663      H3668   1.046       .  S
N3666      H3669   1.046       .  S
N3666      H3670   1.046       .  S
C3671      C3672   1.406       .  A
C3671      C3676   1.395       .  A
C3671      H3678   1.084       .  S
C3672      C3673   1.416       .  A
C3673      C3674   1.399       .  A
C3673      N3680   1.433       .  S
C3674      C3675   1.408       .  A
C3674      H3679   1.084       .  S
C3675      C3676   1.417       .  A
C3676      N3677   1.433       .  S
N3677      H3681   1.045       .  S
N3677      H3682   1.045       .  S
N3680      H3683   1.045       .  S
N3680      H3684   1.045       .  S
C3685      C3690   1.404   1_545  A
C3685      H3692   1.083       .  S
C3686      C3687   1.413       .  A
C3687      C3688   1.406   1_545  A
C3687      N3694   1.438       .  S
C3688      H3693   1.084       .  S
C3689      C3690   1.412       .  A
C3690      N3691   1.438       .  S
N3691      H3695   1.046       .  S
N3691      H3696   1.046       .  S
N3694      H3697   1.046       .  S
N3694      H3698   1.046       .  S
C3699      C3700   1.398       .  A
C3699      C3704   1.408       .  A
C3699      H3706   1.084       .  S
C3700      C3701   1.416       .  A
C3701      C3702   1.400       .  A
C3701      N3708   1.433       .  S
C3702      C3703   1.402       .  A
C3702      H3707   1.084       .  S
C3703      C3704   1.422       .  A
C3704      N3705   1.439       .  S
N3705      H3709   1.046       .  S
N3705      H3710   1.046       .  S
N3708      H3711   1.046       .  S
N3708      H3712   1.045       .  S
C3713      C3714   1.407       .  A
C3713      C3718   1.403       .  A
C3713      H3720   1.084       .  S
C3714      C3715   1.420       .  A
C3715      C3716   1.396       .  A
C3715      N3722   1.433       .  S
C3716      C3717   1.404       .  A
C3716      H3721   1.084       .  S
C3717      C3718   1.420       .  A
C3718      N3719   1.432       .  S
N3719      H3723   1.045       .  S
N3719      H3724   1.045       .  S
N3722      H3725   1.045       .  S
N3722      H3726   1.045       .  S
C3727      C3728   1.405       .  A
C3727      C3732   1.400       .  A
C3727      H3734   1.084       .  S
C3728      C3729   1.420       .  A
C3729      C3730   1.402       .  A
C3729      N3736   1.433       .  S
C3730      C3731   1.406       .  A
C3730      H3735   1.084       .  S
C3731      C3732   1.413       .  A
C3732      N3733   1.433       .  S
N3733      H3737   1.046       .  S
N3733      H3738   1.046       .  S
N3736      H3739   1.045       .  S
N3736      H3740   1.045       .  S
C3741      C3742   1.404       .  A
C3741      C3746   1.398       .  A
C3741      H3748   1.084       .  S
C3742      C3743   1.413       .  A
C3743      C3744   1.406       .  A
C3743      N3750   1.438       .  S
C3744      C3745   1.403       .  A
C3744      H3749   1.084       .  S
C3745      C3746   1.415       .  A
C3746      N3747   1.433       .  S
N3747      H3751   1.045       .  S
N3747      H3752   1.046       .  S
N3750      H3753   1.046       .  S
N3750      H3754   1.046       .  S
C3755      C3756   1.404       .  A
C3755      C3760   1.403       .  A
C3755      H3762   1.084       .  S
C3756      C3757   1.412       .  A
C3757      C3758   1.408       .  A
C3757      N3764   1.438       .  S
C3758      C3759   1.404       .  A
C3758      H3763   1.084       .  S
C3759      C3760   1.412       .  A
C3760      N3761   1.439       .  S
N3761      H3765   1.046       .  S
N3761      H3766   1.045       .  S
N3764      H3767   1.046       .  S
N3764      H3768   1.046       .  S
C3769      C3770   1.405       .  A
C3769      C3774   1.403       .  A
C3769      H3776   1.084       .  S
C3770      C3771   1.414       .  A
C3771      C3772   1.402       .  A
C3771      N3778   1.432       .  S
C3772      C3773   1.404       .  A
C3772      H3777   1.084       .  S
C3773      C3774   1.410       .  A
C3774      N3775   1.438       .  S
N3775      H3779   1.046       .  S
N3775      H3780   1.046       .  S
N3778      H3781   1.046       .  S
N3778      H3782   1.045       .  S
C3783      C3784   1.405       .  A
C3783      C3788   1.409       .  A
C3783      H3790   1.084       .  S
C3784      C3785   1.411       .  A
C3785      C3786   1.394       .  A
C3785      N3792   1.434       .  S
C3786      C3787   1.406       .  A
C3786      H3791   1.084       .  S
C3787      C3788   1.412       .  A
C3788      N3789   1.437       .  S
N3789      H3793   1.046       .  S
N3792      H3795   1.046       .  S
N3792      H3796   1.044       .  S
C3797      C3798   1.405       .  A
C3797      C3802   1.406   1_655  A
C3797      H3804   1.083       .  S
C3798      C3799   1.414       .  A
C3799      C3800   1.403   1_655  A
C3799      N3806   1.439       .  S
C3800      C3801   1.404       .  A
C3800      H3805   1.084       .  S
C3801      C3802   1.413       .  A
C3802      N3803   1.438       .  S
N3803      H3807   1.046       .  S
N3803      H3808   1.046       .  S
N3806      H3809   1.046       .  S
N3806      H3810   1.046       .  S
C3811      C3812   1.400       .  A
C3811      C3816   1.405       .  A
C3811      H3818   1.084       .  S
C3812      C3813   1.412       .  A
C3813      C3814   1.409       .  A
C3813      N3820   1.438       .  S
C3814      C3815   1.406       .  A
C3814      H3819   1.084       .  S
C3815      C3816   1.415       .  A
C3816      N3817   1.438       .  S
N3817      H3821   1.046       .  S
N3817      H3822   1.046       .  S
N3820      H3823   1.045       .  S
C3825      C3826   1.402       .  A
C3825      C3830   1.407       .  A
C3825      H3832   1.084       .  S
C3826      C3827   1.421       .  A
C3827      C3828   1.398       .  A
C3827      N3834   1.434       .  S
C3828      C3829   1.399       .  A
C3828      H3833   1.084       .  S
C3829      C3830   1.416       .  A
C3830      N3831   1.439       .  S
N3831      H3835   1.046       .  S
N3831      H3836   1.046       .  S
N3834      H3837   1.046       .  S
N3834      H3838   1.044       .  S
C3839      C3840   1.402       .  A
C3839      C3844   1.398   1_655  A
C3839      H3846   1.084       .  S
C3840      C3841   1.413       .  A
C3841      C3842   1.408   1_655  A
C3841      N3848   1.438       .  S
C3842      C3843   1.404       .  A
C3842      H3847   1.084       .  S
C3843      C3844   1.416       .  A
C3844      N3845   1.433       .  S
N3845      H3849   1.044       .  S
N3845      H3850   1.046       .  S
N3848      H3851   1.046       .  S
N3848      H3852   1.046       .  S
C3853      C3854   1.404       .  A
C3853      C3858   1.404       .  A
C3853      H3860   1.084       .  S
C3854      C3855   1.416       .  A
C3855      C3856   1.399       .  A
C3855      N3862   1.433       .  S
C3856      C3857   1.401       .  A
C3856      H3861   1.084       .  S
C3857      C3858   1.411       .  A
C3858      N3859   1.438       .  S
N3859      H3863   1.046       .  S
N3859      H3864   1.046       .  S
N3862      H3865   1.046       .  S
N3862      H3866   1.044       .  S
C3867      C3868   1.405       .  A
C3867      C3872   1.408       .  A
C3867      H3874   1.084       .  S
C3868      C3869   1.412       .  A
C3869      C3870   1.404       .  A
C3869      N3876   1.439       .  S
C3870      C3871   1.404       .  A
C3870      H3875   1.084       .  S
C3871      C3872   1.411       .  A
C3872      N3873   1.438       .  S
N3873      H3877   1.046       .  S
N3873      H3878   1.046       .  S
N3876      H3879   1.045       .  S
N3876      H3880   1.046       .  S
C3881      C3882   1.402       .  A
C3881      C3886   1.407       .  A
C3881      H3888   1.084       .  S
C3882      C3883   1.415       .  A
C3883      C3884   1.400       .  A
C3883      N3890   1.438       .  S
C3884      C3885   1.397       .  A
C3884      H3889   1.084       .  S
C3885      C3886   1.415       .  A
C3886      N3887   1.438       .  S
N3887      H3891   1.046       .  S
N3887      H3892   1.045       .  S
N3890      H3893   1.043       .  S
N3890      H3894   1.046       .  S
C3895      C3896   1.396       .  A
C3895      C3900   1.405       .  A
C3895      H3902   1.084       .  S
C3896      C3897   1.418       .  A
C3897      C3898   1.402       .  A
C3897      N3904   1.438       .  S
C3898      C3899   1.403       .  A
C3898      H3903   1.084       .  S
C3899      C3900   1.422       .  A
C3900      N3901   1.439       .  S
N3901      H3905   1.046       .  S
N3901      H3906   1.046       .  S
N3904      H3907   1.043       .  S
N3904      H3908   1.044       .  S
C3909      C3910   1.406       .  A
C3909      C3914   1.410       .  A
C3909      H3916   1.084       .  S
C3910      C3911   1.415       .  A
C3911      C3912   1.408       .  A
C3911      N3918   1.438       .  S
C3912      C3913   1.401       .  A
C3912      H3917   1.084       .  S
C3913      C3914   1.413       .  A
C3914      N3915   1.438       .  S
N3915      H3919   1.046       .  S
N3915      H3920   1.045       .  S
N3918      H3921   1.046       .  S
N3918      H3922   1.046       .  S
C3923      C3924   1.403       .  A
C3923      C3928   1.394   1_655  A
C3923      H3930   1.084       .  S
C3924      C3925   1.414       .  A
C3925      C3926   1.411   1_655  A
C3925      N3932   1.437       .  S
C3926      C3927   1.404       .  A
C3926      H3931   1.084       .  S
C3927      C3928   1.414       .  A
C3928      N3929   1.434       .  S
N3929      H3933   1.044       .  S
N3929      H3934   1.046       .  S
N3932      H3935   1.046       .  S
N3932      H3936   1.046       .  S
C3937      C3938   1.403       .  A
C3937      C3942   1.406   1_565  A
C3937      H3944   1.084       .  S
C3938      C3939   1.417       .  A
C3939      C3940   1.404   1_565  A
C3939      N3946   1.439       .  S
C3940      C3941   1.402       .  A
C3940      H3945   1.083       .  S
C3941      C3942   1.417       .  A
C3942      N3943   1.438       .  S
N3943      H3947   1.046       .  S
N3943      H3948   1.046       .  S
N3946      H3949   1.046       .  S
N3946      H3950   1.046       .  S
C3951      C3952   1.404       .  A
C3951      C3956   1.401       .  A
C3951      H3958   1.084       .  S
C3952      C3953   1.413       .  A
C3953      C3954   1.407       .  A
C3953      N3960   1.438       .  S
C3954      C3955   1.407       .  A
C3954      H3959   1.083       .  S
C3955      C3956   1.415       .  A
C3956      N3957   1.439       .  S
N3957      H3961   1.046       .  S
N3957      H3962   1.046       .  S
N3960      H3963   1.046       .  S
N3960      H3964   1.046       .  S
C3965      C3966   1.404       .  A
C3965      C3970   1.401   1_655  A
C3965      H3972   1.084       .  S
C3966      C3967   1.411       .  A
C3967      C3968   1.407   1_655  A
C3967      N3974   1.438       .  S
C3968      C3969   1.406       .  A
C3968      H3973   1.084       .  S
C3969      C3970   1.415       .  A
C3970      N3971   1.432       .  S
N3971      H3975   1.045       .  S
N3971      H3976   1.046       .  S
N3974      H3977   1.046       .  S
N3974      H3978   1.046       .  S
C3979      C3980   1.409       .  A
C3979      C3984   1.398       .  A
C3979      H3986   1.083       .  S
C3980      C3981   1.413       .  A
C3981      C3982   1.402       .  A
C3981      N3988   1.432       .  S
C3982      C3983   1.403       .  A
C3982      H3987   1.084       .  S
C3983      C3984   1.407       .  A
C3984      N3985   1.433       .  S
N3985      H3989   1.046       .  S
N3985      H3990   1.046       .  S
N3988      H3991   1.046       .  S
N3988      H3992   1.046       .  S
C3993      C3994   1.404       .  A
C3993      C3998   1.399       .  A
C3993      H4000   1.084       .  S
C3994      C3995   1.429       .  A
C3995      C3996   1.395       .  A
C3995      N4002   1.433       .  S
C3996      C3997   1.395       .  A
C3996      H4001   1.084       .  S
C3997      C3998   1.420       .  A
C3998      N3999   1.434       .  S
N3999      H4003   1.044       .  S
N3999      H4004   1.046       .  S
N4002      H4005   1.045       .  S
N4002      H4006   1.045       .  S
C4007      C4008   1.403       .  A
C4007      C4012   1.404   1_565  A
C4007      H4014   1.084       .  S
C4009      C4010   1.403   1_564  A
C4009      N4016   1.432       .  S
C4010      C4011   1.404       .  A
C4010      H4015   1.084       .  S
C4012      N4013   1.438       .  S
N4013      H4017   1.046       .  S
N4016      H4020   1.045       .  S
C4021      C4022   1.405       .  A
C4021      C4026   1.398       .  A
C4021      H4028   1.084       .  S
C4022      C4023   1.413       .  A
C4023      C4024   1.409       .  A
C4023      N4030   1.438       .  S
C4024      C4025   1.404       .  A
C4024      H4029   1.084       .  S
C4025      C4026   1.411       .  A
C4026      N4027   1.433       .  S
N4027      H4031   1.045       .  S
N4027      H4032   1.046       .  S
N4030      H4033   1.046       .  S
N4030      H4034   1.046       .  S
C4035      C4036   1.403       .  A
C4035      C4040   1.406       .  A
C4035      H4042   1.084       .  S
C4036      C4037   1.414       .  A
C4037      C4038   1.401       .  A
C4037      N4044   1.433       .  S
C4038      C4039   1.405       .  A
C4038      H4043   1.084       .  S
C4039      C4040   1.412       .  A
C4040      N4041   1.438       .  S
N4041      H4045   1.046       .  S
N4041      H4046   1.046       .  S
N4044      H4047   1.046       .  S
N4044      H4048   1.045       .  S
C4049      C4050   1.410       .  A
C4049      C4054   1.403   1_565  A
C4049      H4056   1.084       .  S
C4050      C4051   1.414       .  A
C4051      C4052   1.409   1_565  A
C4051      N4058   1.438       .  S
C4052      C4053   1.411       .  A
C4052      H4057   1.083       .  S
C4053      C4054   1.410       .  A
C4054      N4055   1.432       .  S
N4055      H4059   1.046       .  S
N4055      H4060   1.046       .  S
N4058      H4061   1.046       .  S
N4058      H4062   1.046       .  S
C4063      C4064   1.409       .  A
C4063      C4068   1.404       .  A
C4063      H4070   1.084       .  S
C4064      C4065   1.411       .  A
C4065      C4066   1.410       .  A
C4065      N4072   1.437       .  S
C4066      C4067   1.407       .  A
C4066      H4071   1.084       .  S
C4067      C4068   1.411       .  A
C4068      N4069   1.432       .  S
N4069      H4073   1.045       .  S
N4069      H4074   1.046       .  S
N4072      H4075   1.046       .  S
N4072      H4076   1.046       .  S
C4077      C4078   1.407       .  A
C4077      C4082   1.412       .  A
C4077      H4084   1.083       .  S
C4078      C4079   1.411       .  A
C4079      C4080   1.401       .  A
C4079      N4086   1.433       .  S
C4080      C4081   1.401       .  A
C4080      H4085   1.084       .  S
C4081      C4082   1.412       .  A
C4082      N4083   1.438       .  S
N4083      H4087   1.046       .  S
N4083      H4088   1.046       .  S
N4086      H4089   1.046       .  S
N4086      H4090   1.046       .  S
C4091      C4092   1.406       .  A
C4091      C4096   1.401       .  A
C4091      H4098   1.083       .  S
C4092      C4093   1.416       .  A
C4093      C4094   1.405       .  A
C4093      N4100   1.438       .  S
C4094      C4095   1.403       .  A
C4094      H4099   1.083       .  S
C4095      C4096   1.415       .  A
C4096      N4097   1.439       .  S
N4097      H4101   1.046       .  S
N4097      H4102   1.046       .  S
N4100      H4103   1.046       .  S
N4100      H4104   1.046       .  S
C4105      C4106   1.400       .  A
C4105      C4110   1.402       .  A
C4105      H4112   1.084       .  S
C4106      C4107   1.417       .  A
C4107      C4108   1.408       .  A
C4107      N4114   1.438       .  S
C4108      C4109   1.399       .  A
C4108      H4113   1.084       .  S
C4109      C4110   1.412       .  A
C4110      N4111   1.433       .  S
N4111      H4115   1.046       .  S
N4111      H4116   1.046       .  S
N4114      H4118   1.046       .  S
C4119      C4120   1.398       .  A
C4119      C4124   1.406       .  A
C4119      H4126   1.084       .  S
C4120      C4121   1.405       .  A
C4121      C4122   1.398       .  A
C4121      N4128   1.433       .  S
C4122      C4123   1.411       .  A
C4122      H4127   1.083       .  S
C4123      C4124   1.420       .  A
C4124      N4125   1.438       .  S
N4125      H4129   1.046       .  S
N4125      H4130   1.046       .  S
N4128      H4131   1.046       .  S
N4128      H4132   1.046       .  S
C4133      C4134   1.401       .  A
C4133      C4138   1.405   1_565  A
C4133      H4140   1.084       .  S
C4134      C4135   1.416       .  A
C4135      C4136   1.408   1_565  A
C4135      N4142   1.438       .  S
C4136      C4137   1.404       .  A
C4136      H4141   1.084       .  S
C4137      C4138   1.418       .  A
C4138      N4139   1.438       .  S
N4139      H4143   1.046       .  S
N4139      H4144   1.046       .  S
N4142      H4145   1.046       .  S
N4142      H4146   1.046       .  S
C4147      C4148   1.399       .  A
C4147      C4152   1.404       .  A
C4147      H4154   1.084       .  S
C4148      C4149   1.418       .  A
C4149      C4150   1.408       .  A
C4149      N4156   1.439       .  S
C4150      C4151   1.403       .  A
C4150      H4155   1.083       .  S
C4151      C4152   1.421       .  A
C4152      N4153   1.439       .  S
N4153      H4157   1.046       .  S
N4153      H4158   1.046       .  S
N4156      H4159   1.046       .  S
N4156      H4160   1.046       .  S
