geometry optimzed in LAMMPS
_audit_creation_date              2020-12-01 
_audit_creation_method            'lammps2cif' 
_symmetry_space_group_name_H-M    'P1' 
_symmetry_Int_Tables_number       1 
_symmetry_cell_setting            triclinic 
loop_ 
_symmetry_equiv_pos_as_xyz 
  x,y,z 
_cell_length_a                    39.50208349 
_cell_length_b                    39.116633510373255 
_cell_length_c                    48.51199117204232 
_cell_angle_alpha                 89.0786075571485 
_cell_angle_beta                  90.74635045441646 
_cell_angle_gamma                 119.59076791040752 
loop_ 
_atom_site_label 
_atom_site_type_symbol 
_atom_site_fract_x 
_atom_site_fract_y 
_atom_site_fract_z 
_atom_site_charge 
Zn1        Zn  0.13665265  0.19228049  0.60163035     1.49700
Zn2        Zn  0.13699387  0.27571943  0.59968118     1.49400
Zn3        Zn  0.05452765  0.19232242  0.60183771     1.49100
Zn4        Zn  0.11110706  0.22337101  0.64826955     1.49500
O5          O  0.10950619  0.22071460  0.60947071    -1.84000
O6          O  0.18759386  0.23030526  0.58120844    -0.74600
O7          O  0.09808852  0.28690576  0.57856074    -0.74400
O8          O  0.04186601  0.14156103  0.58126566    -0.73900
O9          O  0.18628384  0.28687918  0.57850082    -0.74600
O10         O  0.09866542  0.14182072  0.58029608    -0.74200
O11         O  0.04166107  0.22987510  0.58023269    -0.74800
O12         O  0.06871811  0.17630876  0.66570603    -0.74200
O13         O  0.15492613  0.30952848  0.63443670    -0.74900
O14         O  0.02441749  0.17768053  0.63811111    -0.74300
O15         O  0.10960102  0.26905461  0.66310668    -0.74800
O16         O  0.15938153  0.22775599  0.66188598    -0.74700
O17         O  0.15020263  0.17605060  0.63858333    -0.74500
C18         C  0.20300781  0.26659305  0.57393695     0.77300
C19         C  0.06160966  0.26620004  0.57325280     0.77800
C20         C  0.06215635  0.12559342  0.57467300     0.76800
C21         C  0.03444130  0.16976702  0.66141727     0.77100
C22         C  0.13871801  0.30236889  0.65800082     0.78300
C23         C  0.15990997  0.19582989  0.66078801     0.77300
C24         C  0.22539850  0.11220348  0.79213173     0.45600
H25         H  0.22505168  0.10986362  0.81501006    -0.03400
C26         C  0.22596108  0.11835537  0.73917691     0.45700
H27         H  0.22657142  0.12115573  0.71629651    -0.03400
C28         C  0.26625625  0.12979223  0.77995939    -0.17100
C29         C  0.20123560  0.07255237  0.77768242    -0.16800
C30         C  0.20862533  0.13787144  0.78147351    -0.17200
C31         C  0.26641952  0.13375409  0.75191203    -0.17200
C32         C  0.20178748  0.07588352  0.74946499    -0.16800
C33         C  0.20807922  0.14044140  0.75328981    -0.17100
Zn34       Zn  0.05990553  0.19801258  0.92855994     1.49700
Zn35       Zn  0.14166690  0.19709158  0.93048260     1.49400
Zn36       Zn  0.11439843  0.22279374  0.88174656     1.49100
Zn37       Zn  0.14172198  0.27992222  0.92769641     1.49500
O38         O  0.11451369  0.22468231  0.92052164    -1.84000
O39         O  0.04741253  0.14865737  0.95070488    -0.74600
O40         O  0.15758523  0.18018842  0.89556093    -0.74400
O41         O  0.07170626  0.22719190  0.86525942    -0.73900
O42         O  0.10377246  0.14797389  0.95205116    -0.74600
O43         O  0.02874988  0.18125040  0.89259224    -0.74200
O44         O  0.10990255  0.17391313  0.86822906    -0.74800
O45         O  0.15301413  0.30855058  0.89037467    -0.74200
O46         O  0.19111484  0.23511890  0.95145250    -0.74900
O47         O  0.16077096  0.26633435  0.86557113    -0.74300
O48         O  0.19245444  0.29296047  0.94839247    -0.74800
O49         O  0.10472135  0.29237080  0.94930678    -0.74700
O50         O  0.04798397  0.23592244  0.94898974    -0.74500
C51         C  0.06752051  0.13240715  0.95772617     0.77300
C52         C  0.13915407  0.16965709  0.87266711     0.77800
C53         C  0.03812153  0.19846195  0.86909149     0.76800
C54         C  0.16053730  0.29841892  0.86736289     0.77100
C55         C  0.20777876  0.27209094  0.95608977     0.78300
C56         C  0.06852264  0.27216746  0.95542779     0.77300
Zn57       Zn  0.27159168  0.13608253  0.43123376     1.49700
Zn58       Zn  0.19016823  0.05295991  0.43000628     1.49400
Zn59       Zn  0.18931459  0.13581625  0.42997828     1.49100
Zn60       Zn  0.21894388  0.11016013  0.38364277     1.49500
O61         O  0.21716579  0.10834489  0.42222704    -1.84000
O62         O  0.28402136  0.09853453  0.45247428    -0.74600
O63         O  0.13955382  0.04020086  0.45034053    -0.74400
O64         O  0.22714455  0.18643603  0.45073035    -0.73900
O65         O  0.22790151  0.04134937  0.45234748    -0.74600
O66         O  0.28301802  0.18483728  0.45242050    -0.74200
O67         O  0.14040707  0.09786613  0.45150217    -0.74800
O68         O  0.22277101  0.15867551  0.36939310    -0.74200
O69         O  0.17766541  0.02297075  0.39336158    -0.74900
O70         O  0.17172837  0.14911578  0.39322058    -0.74300
O71         O  0.17301956  0.06690621  0.36694550    -0.74800
O72         O  0.26319159  0.10753923  0.36882068    -0.74700
O73         O  0.30423002  0.15418368  0.39631675    -0.74500
C74         C  0.26402525  0.06203761  0.45880453     0.77300
C75         C  0.12405916  0.06099502  0.45707321     0.77800
C76         C  0.26312113  0.20159181  0.45773495     0.76800
C77         C  0.19120637  0.15927235  0.37089536     0.77100
C78         C  0.16973088  0.03331942  0.37014377     0.78300
C79         C  0.29624349  0.13706316  0.37310842     0.77300
C80         C  0.11267825  0.22087226  0.29114304     0.45600
H81         H  0.11596517  0.22166310  0.31398404    -0.03400
C82         C  0.10543439  0.21894290  0.23828537     0.45700
H83         H  0.10256643  0.21833162  0.21542947    -0.03400
C84         C  0.07033819  0.19715839  0.28146447    -0.17100
C85         C  0.12875658  0.26163115  0.27797834    -0.16800
C86         C  0.13368804  0.20207341  0.27696821    -0.17200
C87         C  0.06645166  0.19622573  0.25329604    -0.17200
C88         C  0.12508276  0.26061041  0.24984239    -0.16800
C89         C  0.12960908  0.20067690  0.24878814    -0.17100
Zn90       Zn  0.19747178  0.05615933  0.09974140     1.49700
Zn91       Zn  0.19831404  0.14019917  0.09840126     1.49400
Zn92       Zn  0.22368807  0.11180980  0.14645944     1.49100
Zn93       Zn  0.27982571  0.13808579  0.10072101     1.49500
O94         O  0.22470008  0.11131044  0.10776786    -1.84000
O95         O  0.14750676  0.04462457  0.07868040    -0.74600
O96         O  0.18482823  0.15947244  0.13351659    -0.74400
O97         O  0.22614884  0.06757334  0.16363601    -0.73900
O98         O  0.14746248  0.10195791  0.07838807    -0.74600
O99         O  0.18078190  0.02495735  0.13586008    -0.74200
O100        O  0.17740023  0.11084066  0.16078438    -0.74800
O101        O  0.30849758  0.14817209  0.13759836    -0.74200
O102        O  0.23672227  0.18912449  0.07640611    -0.74900
O103        O  0.26759230  0.15897653  0.16089957    -0.74300
O104        O  0.29387095  0.19019380  0.08055953    -0.74800
O105        O  0.29176477  0.10056061  0.07932086    -0.74700
O106        O  0.23549310  0.04347878  0.07930987    -0.74500
C107        C  0.13130502  0.06527472  0.07276332     0.77300
C108        C  0.17529374  0.14173455  0.15679336     0.77800
C109        C  0.19746398  0.03385909  0.15942474     0.76800
C110        C  0.29849535  0.15702906  0.16006711     0.77100
C111        C  0.27351727  0.20579555  0.07239676     0.78300
C112        C  0.27171734  0.06408038  0.07331674     0.77300
Zn113      Zn  0.31005127  0.28155198  0.99980162     1.49700
Zn114      Zn  0.30984592  0.03000400  0.00045583     1.49400
Zn115      Zn  0.00346817  0.00150996  0.05601749     1.49100
Zn116      Zn  0.05661744  0.02893482  0.00075541     1.49500
O117        O  0.00286802  0.00198111  0.01498907    -1.84000
O118        O  0.26147808  0.27041840  0.97764691    -0.74600
O119        O  0.28961493  0.04803168  0.03149752    -0.74400
O120        O  0.30940632  0.27627408  0.06938877    -0.73900
O121        O  0.26123394  0.32712107  0.97753421    -0.74600
O122        O  0.29088617  0.24163678  0.03064118    -0.74200
O123        O  0.30768267  0.02949745  0.07001967    -0.74800
O124        O  0.09570676  0.04789613  0.03136030    -0.74200
O125        O  0.01251916  0.07910643  0.97915657    -0.74900
O126        O  0.06128596  0.03030349  0.07012197    -0.74300
O127        O  0.06819187  0.07783372  0.97897965    -0.74800
O128        O  0.07021131  0.32679575  0.97769481    -0.74700
O129        O  0.01395817  0.27063729  0.97706284    -0.74500
C130        C  0.24556388  0.29095332  0.97104845     0.77300
C131        C  0.29056489  0.04601640  0.05762343     0.77800
C132        C  0.29253458  0.24331903  0.05679815     0.76800
C133        C  0.09399534  0.04678670  0.05747121     0.77100
C134        C  0.04834924  0.09445726  0.97269823     0.78300
C135        C  0.04989099  0.29091925  0.97070173     0.77300
Zn136      Zn  0.33066360  0.33091622  0.55617430     1.49700
Zn137      Zn  0.02223150  0.30213166  0.50042607     1.49400
Zn138      Zn  0.27609936  0.30436977  0.50130749     1.49100
Zn139      Zn  0.02338187  0.05189395  0.50152534     1.49500
O140        O  0.33053943  0.33133520  0.51509569    -1.84000
O141        O  0.02647484  0.30145906  0.57003343    -0.74600
O142        O  0.31857616  0.25469564  0.47881686    -0.74400
O143        O  0.23757770  0.28482108  0.53221275    -0.73900
O144        O  0.04217640  0.28240773  0.53142457    -0.74600
O145        O  0.27309818  0.30117112  0.57073225    -0.74200
O146        O  0.26288187  0.25584459  0.47903037    -0.74800
O147        O  0.31954096  0.06367779  0.47990791    -0.74200
O148        O  0.07017595  0.00564056  0.47817873    -0.74900
O149        O  0.26338478  0.00731929  0.48109426    -0.74300
O150        O  0.07128663  0.06299079  0.47893839    -0.74800
O151        O  0.04402810  0.09101858  0.53266971    -0.74700
O152        O  0.02622515  0.05492020  0.57125281    -0.74500
C153        C  0.04230480  0.28432960  0.55754457     0.77300
C154        C  0.28253094  0.23941279  0.47252078     0.77800
C155        C  0.23997590  0.28509611  0.55833244     0.76800
C156        C  0.28335149  0.04335945  0.47400433     0.77100
C157        C  0.08644256  0.04215635  0.47201783     0.78300
C158        C  0.04320811  0.08843980  0.55885666     0.77300
C159        C  0.03091607  0.17556718  0.23634914    -0.05900
C160        C  0.03245128  0.15147919  0.21584586    -0.17100
C161        C  0.01075330  0.14384263  0.19165345     0.11200
C162        C  0.32007414  0.16170293  0.18607998    -0.05900
C163        C  0.98156147  0.18078832  0.20960518    -0.17100
C164        C  0.00296310  0.18794197  0.23405631     0.11300
S165        S  0.01491302  0.11177910  0.16731637    -0.32100
S166        S  0.99464581  0.21510927  0.26020376    -0.32100
H167        H  0.03343752  0.23687117  0.26858156     0.29300
H168        H  0.31131473  0.09150544  0.16034699     0.29300
H169        H  0.05302739  0.14084070  0.21779483     0.19900
H170        H  0.29287094  0.19119449  0.20589302     0.19900
C171        C  0.14369589  0.29404125  0.23045261    -0.05900
C172        C  0.18442343  0.31414803  0.22883421    -0.17100
C173        C  0.20177576  0.00609440  0.20608678     0.11200
C174        C  0.17981868  0.00756680  0.18326388    -0.05900
C175        C  0.14044288  0.31973331  0.18533032    -0.17100
C176        C  0.12165928  0.29760279  0.20866678     0.11300
S177        S  0.25408625  0.02855637  0.20571436    -0.32100
S178        S  0.06939641  0.27434593  0.21039489    -0.32100
H179        H  0.06275072  0.27926746  0.18243179     0.29300
H180        H  0.25643554  0.02263751  0.17743351     0.29300
H181        H  0.20139660  0.31016625  0.24501751     0.19900
H182        H  0.12341510  0.32326018  0.16899283     0.19900
C183        C  0.16438877  0.15765204  0.18041049    -0.05900
C184        C  0.14187065  0.13135126  0.20147129    -0.16500
C185        C  0.13222994  0.14433277  0.22522634     0.11200
C186        C  0.14572154  0.18487620  0.22840830    -0.05900
C187        C  0.16914317  0.21123055  0.20775859    -0.17100
C188        C  0.17912810  0.19834462  0.18416534     0.11300
S189        S  0.10142686  0.10713389  0.24965278    -0.32100
S190        S  0.21196967  0.23562458  0.16047133    -0.32100
H191        H  0.23691083  0.21964210  0.15865100     0.29300
H192        H  0.08230265  0.12703553  0.25810332     0.29300
H193        H  0.13100665  0.10010655  0.19922918     0.19900
H194        H  0.17936428  0.24235472  0.20986577     0.19900
C195        C  0.16007382  0.00846752  0.34563332    -0.05900
C196        C  0.13233109  0.00772452  0.32687744    -0.17100
C197        C  0.12593251  0.31741857  0.30106661     0.11200
C198        C  0.14566596  0.29639975  0.29602907    -0.05900
C199        C  0.17567371  0.30086894  0.31395870    -0.17100
C200        C  0.18488775  0.32395553  0.33759064     0.11300
S201        S  0.08665583  0.98480719  0.27947325    -0.32100
S202        S  0.22602020  0.33138890  0.35866448    -0.32100
H203        H  0.23840894  0.31055748  0.34202905     0.29300
H204        H  0.07741580  0.33731091  0.29340159     0.29300
H205        H  0.11685188  0.02326055  0.33179986     0.19900
H206        H  0.19071317  0.28469150  0.31002578     0.19900
C207        C  0.03950601  0.18048162  0.30247869    -0.05900
C208        C  0.04117345  0.20671119  0.32251437    -0.17100
C209        C  0.01917686  0.19353698  0.34641173     0.11200
C210        C  0.32350366  0.15283035  0.34984695    -0.05900
C211        C  0.32175532  0.12652227  0.32970846    -0.17100
C212        C  0.01430096  0.13982698  0.30623047     0.11300
S213        S  0.02315549  0.23044673  0.36999056    -0.32100
S214        S  0.01122118  0.10450818  0.28147640    -0.32100
H215        H  0.98643016  0.07043180  0.29668794     0.29300
H216        H  0.37714597  0.26327405  0.35564513     0.29300
H217        H  0.06071323  0.23798383  0.31980177     0.19900
H218        H  0.30284432  0.09528105  0.33292514     0.19900
C219        C  0.17631080  0.16815650  0.34544823    -0.05900
C220        C  0.20319155  0.19667756  0.32721841    -0.17100
C221        C  0.19123525  0.20556267  0.30216209     0.11200
C222        C  0.15147776  0.18457593  0.29476255    -0.05900
C223        C  0.12521492  0.15422011  0.31211981    -0.17100
C224        C  0.13696619  0.14576568  0.33723456     0.11300
S225        S  0.22802420  0.24580867  0.28211245    -0.32100
S226        S  0.09987666  0.10662169  0.35773160    -0.32100
H227        H  0.12289975  0.08990505  0.36544573     0.29300
H228        H  0.20479998  0.24546355  0.26005853     0.29300
H229        H  0.23370439  0.21314895  0.33298124     0.19900
H230        H  0.09443725  0.13887570  0.30706249     0.19900
C231        C  0.30060486  0.14486942  0.79846734    -0.05900
C232        C  0.32817093  0.18494011  0.79714093    -0.17100
C233        C  0.35088657  0.20420524  0.82019820     0.11200
C234        C  0.01237227  0.18162544  0.84500144    -0.05900
C235        C  0.32234272  0.14181488  0.84492898    -0.17100
C236        C  0.29990758  0.12279474  0.82191464     0.11300
S237        S  0.04486289  0.25631304  0.81837733    -0.32100
S238        S  0.27211185  0.07003829  0.82236875    -0.32100
H239        H  0.27490453  0.06443921  0.85084310     0.29300
H240        H  0.03553105  0.26234085  0.84509754     0.29300
H241        H  0.32905838  0.20224225  0.77923964     0.19900
H242        H  0.98841778  0.12347599  0.86247478     0.19900
C243        C  0.18042604  0.03683389  0.79495253    -0.05900
C244        C  0.15815324  0.03936235  0.81625517    -0.17100
C245        C  0.15054733  0.01692522  0.84028677     0.11200
C246        C  0.16563161  0.32171583  0.84188613    -0.05900
C247        C  0.18433732  0.31635089  0.81913648    -0.17100
C248        C  0.19076713  0.00710298  0.79620561     0.11300
S249        S  0.12186080  0.02362713  0.86600317    -0.32100
S250        S  0.21803380  0.99971218  0.76971294    -0.32100
H251        H  0.24401904  0.03978014  0.76480447     0.29300
H252        H  0.09741107  0.98310738  0.87069082     0.29300
H253        H  0.14894684  0.06120050  0.81500038     0.19900
H254        H  0.19475379  0.29542609  0.82048495     0.19900
C255        C  0.15531810  0.15885167  0.84939564    -0.05900
C256        C  0.19577590  0.17986244  0.84650870    -0.17100
C257        C  0.21355081  0.17727909  0.82273474     0.11200
C258        C  0.19072120  0.15210516  0.80134137    -0.05900
C259        C  0.15010173  0.13175861  0.80369724    -0.17100
C260        C  0.13211781  0.13468103  0.82754985     0.11300
S261        S  0.26562088  0.20765094  0.82117346    -0.32100
S262        S  0.07985663  0.10518673  0.82944444    -0.32100
H263        H  0.07890301  0.09851849  0.85808378     0.29300
H264        H  0.26904147  0.20546467  0.79261514     0.29300
H265        H  0.21380779  0.19989771  0.86248108     0.19900
H266        H  0.13250624  0.11138469  0.78775064     0.19900
C267        C  0.00836180  0.15867037  0.68508246    -0.05900
C268        C  0.33101376  0.18674019  0.69263845    -0.17100
C269        C  0.30987604  0.18134408  0.71665397     0.11200
C270        C  0.30017086  0.14831522  0.73360958    -0.05900
C271        C  0.31434794  0.12286120  0.72739439    -0.17100
C272        C  0.00180690  0.12753385  0.70336688     0.11300
S273        S  0.29567525  0.21693528  0.72572436    -0.32100
S274        S  0.01808784  0.09284154  0.69649869    -0.32100
H275        H  0.01741664  0.09602089  0.66760652     0.29300
H276        H  0.30859859  0.23994656  0.70151519     0.29300
H277        H  0.33875703  0.21229032  0.67962357     0.19900
H278        H  0.30618214  0.09698054  0.74015980     0.19900
C279        C  0.15525042  0.33093708  0.68075263    -0.05900
C280        C  0.13017118  0.32976802  0.70160766    -0.17100
C281        C  0.14291038  0.02176094  0.72502656     0.11200
C282        C  0.18350266  0.04420778  0.72898771    -0.05900
C283        C  0.20849882  0.04239374  0.70960825    -0.17100
C284        C  0.19427035  0.01928587  0.68624859     0.11300
S285        S  0.10967916  0.02432712  0.74903688    -0.32100
S286        S  0.22949202  0.01722389  0.66416806    -0.32100
H287        H  0.22101511  0.03533971  0.64191618     0.29300
H288        H  0.07566832  0.00264070  0.73326007     0.29300
H289        H  0.09908321  0.31069421  0.69921610     0.19900
H290        H  0.23971009  0.05980203  0.71251337     0.19900
C291        C  0.16834964  0.18078340  0.68645466    -0.05900
C292        C  0.19049855  0.20775471  0.70717153    -0.17100
C293        C  0.19935725  0.19512275  0.73206957     0.11200
C294        C  0.18673033  0.15488244  0.73587250    -0.05900
C295        C  0.16092826  0.12794537  0.71665497    -0.17100
C296        C  0.15138740  0.14018500  0.69221435     0.11300
S297        S  0.22692478  0.23052131  0.75826431    -0.32100
S298        S  0.11744386  0.10218146  0.66963861    -0.32100
H299        H  0.09510657  0.12058415  0.66437974     0.29300
H300        H  0.23483472  0.26438160  0.74282875     0.29300
H301        H  0.20142402  0.23884110  0.70365487     0.19900
H302        H  0.15012851  0.09694550  0.71981124     0.19900
Zn303      Zn  0.13651752  0.52504043  0.60163299     1.49700
Zn304      Zn  0.13741621  0.60898751  0.60065769     1.49400
Zn305      Zn  0.05470563  0.52573026  0.60212665     1.49100
Zn306      Zn  0.11150216  0.55548375  0.64848159     1.49500
O307        O  0.10964173  0.55372634  0.60969028    -1.84000
O308        O  0.18776478  0.56342424  0.58178515    -0.74600
O309        O  0.09903561  0.62087710  0.57931786    -0.74400
O310        O  0.04179024  0.47471651  0.58135103    -0.73900
O311        O  0.18678849  0.62022477  0.57971511    -0.74600
O312        O  0.09877048  0.47542466  0.57958460    -0.74200
O313        O  0.04242937  0.56397740  0.58049556    -0.74800
O314        O  0.06920077  0.50807775  0.66552697    -0.74200
O315        O  0.15512380  0.64199577  0.63586334    -0.74900
O316        O  0.02528443  0.51169371  0.63884471    -0.74300
O317        O  0.10997091  0.60060363  0.66432782    -0.74800
O318        O  0.15991980  0.55958319  0.66134939    -0.74700
O319        O  0.14895836  0.50713855  0.63840948    -0.74500
C320        C  0.20335713  0.59986874  0.57490384     0.77300
C321        C  0.06262263  0.60038787  0.57368285     0.77800
C322        C  0.06219129  0.45904817  0.57423224     0.76800
C323        C  0.03535269  0.50310165  0.66191775     0.77100
C324        C  0.13886547  0.63412687  0.65944093     0.78300
C325        C  0.15913055  0.52698906  0.66056671     0.77300
C326        C  0.22495523  0.44466295  0.79221284     0.45600
H327        H  0.22427597  0.44194168  0.81506888    -0.03400
C328        C  0.22597337  0.45172670  0.73932781     0.45700
H329        H  0.22672123  0.45500135  0.71647889    -0.03400
C330        C  0.26607381  0.46340924  0.78028611    -0.17100
C331        C  0.20191904  0.40515686  0.77734040    -0.16800
C332        C  0.20728583  0.46962788  0.78175244    -0.17200
C333        C  0.26646292  0.46795727  0.75223534    -0.17200
C334        C  0.20275147  0.40897126  0.74913684    -0.16800
C335        C  0.20680889  0.47245023  0.75358702    -0.17100
Zn336      Zn  0.06036911  0.53240245  0.92988508     1.49700
Zn337      Zn  0.14238881  0.53199872  0.93078787     1.49400
Zn338      Zn  0.11490170  0.55829331  0.88311704     1.49100
Zn339      Zn  0.14154692  0.61456998  0.92926886     1.49500
O340        O  0.11480102  0.55939216  0.92181198    -1.84000
O341        O  0.04853857  0.48274458  0.95133274    -0.74600
O342        O  0.15861578  0.51613142  0.89546646    -0.74400
O343        O  0.07232252  0.56325170  0.86707242    -0.73900
O344        O  0.10501877  0.48226259  0.95191578    -0.74600
O345        O  0.02962316  0.51611750  0.89380443    -0.74200
O346        O  0.11072107  0.51002080  0.86846508    -0.74800
O347        O  0.15264114  0.64380304  0.89217123    -0.74200
O348        O  0.19137970  0.56973458  0.95197485    -0.74900
O349        O  0.16168861  0.60206998  0.86787835    -0.74300
O350        O  0.19219359  0.62740127  0.94978818    -0.74800
O351        O  0.10445883  0.62645604  0.95112235    -0.74700
O352        O  0.04797013  0.56976194  0.95075147    -0.74500
C353        C  0.06881399  0.46645395  0.95777812     0.77300
C354        C  0.13995656  0.50564464  0.87265866     0.77800
C355        C  0.03902281  0.53386915  0.87048929     0.76800
C356        C  0.16076703  0.63381075  0.86934176     0.77100
C357        C  0.20770597  0.60654150  0.95705412     0.78300
C358        C  0.06830653  0.60601262  0.95726319     0.77300
Zn359      Zn  0.27158816  0.47032165  0.43088833     1.49700
Zn360      Zn  0.19076938  0.38659390  0.42873061     1.49400
Zn361      Zn  0.18921075  0.46900752  0.42994598     1.49100
Zn362      Zn  0.21925848  0.44442283  0.38278865     1.49500
O363        O  0.21723327  0.44205382  0.42142955    -1.84000
O364        O  0.28478512  0.43294435  0.45149485    -0.74600
O365        O  0.13979329  0.37283943  0.44922088    -0.74400
O366        O  0.22605491  0.51904188  0.45140696    -0.73900
O367        O  0.22895567  0.37550300  0.45087818    -0.74600
O368        O  0.28219995  0.51807274  0.45279875    -0.74200
O369        O  0.14035632  0.43032683  0.45096555    -0.74800
O370        O  0.22269619  0.49298377  0.36905572    -0.74200
O371        O  0.17924961  0.35716531  0.39180052    -0.74900
O372        O  0.17228578  0.48362082  0.39365926    -0.74300
O373        O  0.17434679  0.40061133  0.36494621    -0.74800
O374        O  0.26456562  0.44348019  0.36858971    -0.74700
O375        O  0.30475553  0.49015790  0.39639849    -0.74500
C376        C  0.26501704  0.39632068  0.45746117     0.77300
C377        C  0.12416102  0.39340840  0.45625950     0.77800
C378        C  0.26199681  0.53435845  0.45842519     0.76800
C379        C  0.19150238  0.49415433  0.37122698     0.77100
C380        C  0.17163839  0.36724215  0.36834946     0.78300
C381        C  0.29733411  0.47328226  0.37313992     0.77300
C382        C  0.11184815  0.55614194  0.29153060     0.45600
H383        H  0.11511472  0.55745508  0.31437643    -0.03400
C384        C  0.10490855  0.55303984  0.23866146     0.45700
H385        H  0.10222840  0.55189404  0.21579684    -0.03400
C386        C  0.06959380  0.53221664  0.28186457    -0.17100
C387        C  0.12789980  0.59657471  0.27789158    -0.16800
C388        C  0.13289725  0.53703674  0.27788328    -0.17200
C389        C  0.06580646  0.53053952  0.25367159    -0.17200
C390        C  0.12431330  0.59495940  0.24976120    -0.16800
C391        C  0.12927874  0.53526133  0.24971588    -0.17100
Zn392      Zn  0.19797355  0.38974383  0.10033778     1.49700
Zn393      Zn  0.19842614  0.47392959  0.09974972     1.49400
Zn394      Zn  0.22327117  0.44479730  0.14753539     1.49100
Zn395      Zn  0.27994325  0.47164810  0.10135916     1.49500
O396        O  0.22475324  0.44475815  0.10876632    -1.84000
O397        O  0.14832029  0.37851069  0.07908052    -0.74600
O398        O  0.18508262  0.49320186  0.13517623    -0.74400
O399        O  0.22576576  0.40044031  0.16481744    -0.73900
O400        O  0.14784438  0.43565825  0.07929048    -0.74600
O401        O  0.18175939  0.35782351  0.13618839    -0.74200
O402        O  0.17733960  0.44438814  0.16235661    -0.74800
O403        O  0.30851060  0.48189427  0.13829483    -0.74200
O404        O  0.23681395  0.52311682  0.07779660    -0.74900
O405        O  0.26709087  0.49225159  0.16138908    -0.74300
O406        O  0.29384932  0.52384697  0.08110795    -0.74800
O407        O  0.29215135  0.43411391  0.07985665    -0.74700
O408        O  0.23581737  0.37720158  0.07961261    -0.74500
C409        C  0.13208856  0.39913758  0.07318170     0.77300
C410        C  0.17562684  0.47553025  0.15849917     0.77800
C411        C  0.19809773  0.36634176  0.15988864     0.76800
C412        C  0.29810197  0.49053970  0.16068617     0.77100
C413        C  0.27350172  0.53965248  0.07333542     0.78300
C414        C  0.27204182  0.39768264  0.07367253     0.77300
Zn415      Zn  0.30974700  0.61537803  0.00046904     1.49700
Zn416      Zn  0.30933257  0.36299010  0.00049115     1.49400
Zn417      Zn  0.00475225  0.33544286  0.05548672     1.49100
Zn418      Zn  0.05825765  0.36273938  0.00044905     1.49500
O419        O  0.00426705  0.33579524  0.01445242    -1.84000
O420        O  0.26115928  0.60456324  0.97858215    -0.74600
O421        O  0.28933018  0.38116066  0.03171126    -0.74400
O422        O  0.30885952  0.61025896  0.07009306    -0.73900
O423        O  0.26121419  0.66146271  0.97823953    -0.74600
O424        O  0.29085018  0.57542260  0.03144700    -0.74200
O425        O  0.30787040  0.36288689  0.07015282    -0.74800
O426        O  0.09721007  0.38151716  0.03137234    -0.74200
O427        O  0.01386196  0.41251661  0.97852553    -0.74900
O428        O  0.06223697  0.36446019  0.06986826    -0.74300
O429        O  0.06991617  0.41192634  0.97885367    -0.74800
O430        O  0.06965699  0.66059219  0.97932415    -0.74700
O431        O  0.01357018  0.60431657  0.97873243    -0.74500
C432        C  0.24540898  0.62524265  0.97194444     0.77300
C433        C  0.29070082  0.37945004  0.05784983     0.77800
C434        C  0.29233345  0.57719585  0.05761373     0.76800
C435        C  0.09511097  0.38071525  0.05748486     0.77100
C436        C  0.04983527  0.42825779  0.97240970     0.78300
C437        C  0.04950538  0.62464730  0.97245812     0.77300
Zn438      Zn  0.33065593  0.66392999  0.55647876     1.49700
Zn439      Zn  0.02378646  0.63763103  0.50086290     1.49400
Zn440      Zn  0.27517496  0.63733462  0.50184716     1.49100
Zn441      Zn  0.02409224  0.38488448  0.50113538     1.49500
O442        O  0.32972652  0.66405118  0.51542477    -1.84000
O443        O  0.02732967  0.63556161  0.57039701    -0.74600
O444        O  0.31725527  0.58727828  0.47950005    -0.74400
O445        O  0.23740304  0.61815909  0.53308655    -0.73900
O446        O  0.04416938  0.61780631  0.53175388    -0.74600
O447        O  0.27337789  0.63435907  0.57141739    -0.74200
O448        O  0.26157383  0.58846276  0.47983696    -0.74800
O449        O  0.32045437  0.39792149  0.47877929    -0.74200
O450        O  0.07033007  0.33796505  0.47749876    -0.74900
O451        O  0.26438596  0.34138617  0.47918538    -0.74300
O452        O  0.07161470  0.39539630  0.47836099    -0.74800
O453        O  0.04491336  0.42441023  0.53214423    -0.74700
O454        O  0.02594249  0.38837651  0.57068926    -0.74500
C455        C  0.04365411  0.61893662  0.55790605     0.77300
C456        C  0.28120343  0.57200439  0.47332468     0.77800
C457        C  0.24014196  0.61838750  0.55918324     0.76800
C458        C  0.28437814  0.37757661  0.47250149     0.77100
C459        C  0.08662558  0.37447637  0.47131444     0.78300
C460        C  0.04333818  0.42189885  0.55832949     0.77300
C461        C  0.03029984  0.50952790  0.23673689    -0.05900
C462        C  0.03200511  0.48531320  0.21641951    -0.17100
C463        C  0.01033888  0.47735015  0.19219010     0.11200
C464        C  0.31938113  0.49537426  0.18677884    -0.05900
C465        C  0.98057041  0.51392572  0.20984595    -0.17100
C466        C  0.00212639  0.52159933  0.23428666     0.11300
S467        S  0.01504902  0.44546545  0.16798877    -0.32100
S468        S  0.99401686  0.54931707  0.26011985    -0.32100
H469        H  0.03306942  0.57207054  0.26775008     0.29300
H470        H  0.30752647  0.42409181  0.16182652     0.29300
H471        H  0.05275306  0.47490052  0.21851422     0.19900
H472        H  0.29358365  0.52693523  0.20556083     0.19900
C473        C  0.14280666  0.62804516  0.23011678    -0.05900
C474        C  0.18355730  0.64923073  0.22917357    -0.17100
C475        C  0.20331828  0.33621428  0.20529951     0.11200
C476        C  0.18098543  0.33875278  0.18314249    -0.05900
C477        C  0.14005446  0.65281541  0.18457869    -0.17100
C478        C  0.12095698  0.63076615  0.20785776     0.11300
S479        S  0.25551481  0.35810066  0.20403695    -0.32100
S480        S  0.06858246  0.60669279  0.20903601    -0.32100
H481        H  0.06242356  0.61784198  0.18256211     0.29300
H482        H  0.25698654  0.35389522  0.17539987     0.29300
H483        H  0.20044317  0.64620114  0.24585582     0.19900
H484        H  0.12319657  0.65547438  0.16773322     0.19900
C485        C  0.16515281  0.49174704  0.18225362    -0.05900
C486        C  0.14199464  0.46555567  0.20315365    -0.16500
C487        C  0.13219774  0.47873912  0.22676333     0.11200
C488        C  0.14602370  0.51935911  0.22990947    -0.05900
C489        C  0.17047739  0.54565409  0.20963188    -0.17100
C490        C  0.18075991  0.53255020  0.18624440     0.11300
S491        S  0.10097443  0.44173927  0.25116699    -0.32100
S492        S  0.21510428  0.56962019  0.16311894    -0.32100
H493        H  0.23854887  0.55195383  0.16109683     0.29300
H494        H  0.08233446  0.46206459  0.25969511     0.29300
H495        H  0.13069796  0.43423750  0.20086783     0.19900
H496        H  0.18121912  0.57688198  0.21184047     0.19900
C497        C  0.16262648  0.34196017  0.34400906    -0.05900
C498        C  0.13455655  0.33990339  0.32503416    -0.17100
C499        C  0.12549063  0.65277381  0.30056284     0.11200
C500        C  0.14512532  0.63165439  0.29558904    -0.05900
C501        C  0.17500326  0.63594009  0.31357138    -0.17100
C502        C  0.18387417  0.65856885  0.33738492     0.11300
S503        S  0.08852881  0.31439642  0.27793435    -0.32100
S504        S  0.22449644  0.66524278  0.35874663    -0.32100
H505        H  0.23863491  0.64708091  0.34101809     0.29300
H506        H  0.07949751  0.67557497  0.29151571     0.29300
H507        H  0.11893233  0.35545098  0.32931986     0.19900
H508        H  0.19000146  0.61968584  0.30965232     0.19900
C509        C  0.03893281  0.51564345  0.30302818    -0.05900
C510        C  0.04072838  0.54203652  0.32300893    -0.17100
C511        C  0.02007906  0.52897434  0.34750495     0.11200
C512        C  0.32493301  0.48926415  0.35011453    -0.05900
C513        C  0.32271901  0.46303973  0.32975546    -0.17100
C514        C  0.01475518  0.47495314  0.30742042     0.11300
S515        S  0.02485041  0.56599606  0.37129138    -0.32100
S516        S  0.01133386  0.43943037  0.28272933    -0.32100
H517        H  0.98809009  0.40551399  0.29859816     0.29300
H518        H  0.38067453  0.59969288  0.35673572     0.29300
H519        H  0.05965391  0.57334655  0.31988582     0.19900
H520        H  0.30351462  0.43179764  0.33280654     0.19900
C521        C  0.17634490  0.50381373  0.34628582    -0.05900
C522        C  0.20301661  0.53149622  0.32749966    -0.17100
C523        C  0.19052683  0.54010405  0.30258528     0.11200
C524        C  0.15052277  0.51986247  0.29605889    -0.05900
C525        C  0.12439030  0.49018240  0.31387156    -0.17100
C526        C  0.13670417  0.48177775  0.33883163     0.11300
S527        S  0.22709387  0.57779415  0.28080824    -0.32100
S528        S  0.10148553  0.44231578  0.36038294    -0.32100
H529        H  0.06928712  0.42986206  0.34250195     0.29300
H530        H  0.20293126  0.58800740  0.26566754     0.29300
H531        H  0.23378165  0.54721801  0.33257748     0.19900
H532        H  0.09361487  0.47540145  0.30902508     0.19900
C533        C  0.30024368  0.47853010  0.79904142    -0.05900
C534        C  0.32822869  0.51846976  0.79746996    -0.17100
C535        C  0.35101268  0.53790135  0.82048329     0.11200
C536        C  0.01377068  0.51694610  0.84617063    -0.05900
C537        C  0.32158041  0.47593854  0.84574119    -0.17100
C538        C  0.29913922  0.45673643  0.82279719     0.11300
S539        S  0.04729688  0.59141577  0.81906663    -0.32100
S540        S  0.27106915  0.40401726  0.82384238    -0.32100
H541        H  0.27095031  0.39942197  0.85267163     0.29300
H542        H  0.03691245  0.59793175  0.84529717     0.29300
H543        H  0.32943314  0.53560639  0.77937366     0.19900
H544        H  0.98927449  0.45879019  0.86383519     0.19900
C545        C  0.18155004  0.36906210  0.79424106    -0.05900
C546        C  0.15821891  0.37042640  0.81521415    -0.17100
C547        C  0.15002539  0.34723288  0.83886618     0.11200
C548        C  0.16577797  0.65662612  0.84365082    -0.05900
C549        C  0.18439999  0.65065123  0.82112295    -0.17100
C550        C  0.19271492  0.33992489  0.79537539     0.11300
S551        S  0.11969506  0.35223665  0.86412193    -0.32100
S552        S  0.22172679  0.33445533  0.76924896    -0.32100
H553        H  0.24658551  0.37483785  0.76459632     0.29300
H554        H  0.09662422  0.31156626  0.86893255     0.29300
H555        H  0.14845617  0.39186222  0.81399022     0.19900
H556        H  0.19481621  0.62975151  0.82284114     0.19900
C557        C  0.15551221  0.49408369  0.84937721    -0.05900
C558        C  0.19589553  0.51474661  0.84600593    -0.17100
C559        C  0.21309542  0.51059797  0.82243552     0.11200
C560        C  0.18973349  0.48418143  0.80175058    -0.05900
C561        C  0.14917193  0.46413658  0.80457959    -0.17100
C562        C  0.13176850  0.46875272  0.82818064     0.11300
S563        S  0.26511815  0.54086556  0.82013426    -0.32100
S564        S  0.07950714  0.43998323  0.83062481    -0.32100
H565        H  0.07898782  0.43447099  0.85938025     0.29300
H566        H  0.26784434  0.53772031  0.79159336     0.29300
H567        H  0.21431533  0.53563484  0.86143777     0.19900
H568        H  0.13115610  0.44300151  0.78915029     0.19900
C569        C  0.01009548  0.49303898  0.68605349    -0.05900
C570        C  0.32857053  0.51869966  0.69144578    -0.17100
C571        C  0.30777872  0.51416672  0.71552152     0.11200
C572        C  0.30032099  0.48307477  0.73390844    -0.05900
C573        C  0.31691427  0.45929044  0.72919129    -0.17100
C574        C  0.00437886  0.46283695  0.70501721     0.11300
S575        S  0.29108484  0.54839339  0.72286355    -0.32100
S576        S  0.02131639  0.42845875  0.69899209    -0.32100
H577        H  0.01889768  0.42948254  0.67007279     0.29300
H578        H  0.30527039  0.57156114  0.69881578     0.29300
H579        H  0.33427359  0.54258369  0.67724959     0.19900
H580        H  0.31061938  0.43491794  0.74308791     0.19900
C581        C  0.15517435  0.66223242  0.68238720    -0.05900
C582        C  0.12970040  0.66291202  0.70214943    -0.17100
C583        C  0.14461500  0.35316608  0.72519372     0.11200
C584        C  0.18510418  0.37770558  0.72823872    -0.05900
C585        C  0.21007933  0.37832997  0.70772678    -0.17100
C586        C  0.19587233  0.35545281  0.68409190     0.11300
S587        S  0.11110519  0.35342802  0.75006829    -0.32100
S588        S  0.23040727  0.35695427  0.65925981    -0.32100
H589        H  0.26457982  0.38474254  0.67270562     0.29300
H590        H  0.07680438  0.32373297  0.73793742     0.29300
H591        H  0.09859346  0.64508261  0.69898415     0.19900
H592        H  0.24111580  0.39758792  0.71015242     0.19900
C593        C  0.16672539  0.51163074  0.68647547    -0.05900
C594        C  0.18765860  0.53848708  0.70756390    -0.17100
C595        C  0.19621363  0.52598274  0.73259752     0.11200
C596        C  0.18466229  0.48598340  0.73620713    -0.05900
C597        C  0.15967303  0.45889442  0.71670002    -0.17100
C598        C  0.15046604  0.47101900  0.69203251     0.11300
S599        S  0.22294791  0.56148303  0.75891354    -0.32100
S600        S  0.11820424  0.43293622  0.66883725    -0.32100
H601        H  0.09476134  0.45008795  0.66343973     0.29300
H602        H  0.22270024  0.59374858  0.74591545     0.29300
H603        H  0.19829065  0.56956304  0.70415882     0.19900
H604        H  0.14946332  0.42790163  0.71979438     0.19900
Zn605      Zn  0.13697635  0.85912127  0.60261881     1.49700
Zn606      Zn  0.13710466  0.94261884  0.60067825     1.49400
Zn607      Zn  0.05508205  0.85936190  0.60220828     1.49100
Zn608      Zn  0.11123252  0.88955318  0.64903599     1.49500
O609        O  0.10986852  0.88765244  0.61020881    -1.84000
O610        O  0.18841297  0.89746419  0.58308579    -0.74600
O611        O  0.09854699  0.95390561  0.57895897    -0.74400
O612        O  0.04277043  0.80896436  0.58136441    -0.73900
O613        O  0.18710765  0.95406914  0.58038022    -0.74600
O614        O  0.09963895  0.80936336  0.58052823    -0.74200
O615        O  0.04211969  0.89694035  0.58070581    -0.74800
O616        O  0.06895208  0.84177154  0.66561638    -0.74200
O617        O  0.15362185  0.97585233  0.63560087    -0.74900
O618        O  0.02501229  0.84448232  0.63840519    -0.74300
O619        O  0.10909706  0.93464842  0.66453844    -0.74800
O620        O  0.15934763  0.89362028  0.66275160    -0.74700
O621        O  0.14916705  0.84159842  0.63954037    -0.74500
C622        C  0.20395377  0.93383266  0.57603385     0.77300
C623        C  0.06205523  0.93322141  0.57363290     0.77800
C624        C  0.06321481  0.79320979  0.57468380     0.76800
C625        C  0.03491553  0.83601331  0.66155754     0.77100
C626        C  0.13747455  0.96835078  0.65919407     0.78300
C627        C  0.15893772  0.86120592  0.66180044     0.77300
C628        C  0.22559810  0.77792953  0.79253139     0.45600
H629        H  0.22562406  0.77553721  0.81540231    -0.03400
C630        C  0.22518668  0.78398875  0.73959066     0.45700
H631        H  0.22528395  0.78662225  0.71671383    -0.03400
C632        C  0.26631637  0.79636900  0.77997046    -0.17100
C633        C  0.20200265  0.73820892  0.77809334    -0.16800
C634        C  0.20773237  0.80277646  0.78220780    -0.17200
C635        C  0.26599967  0.80043009  0.75194978    -0.17200
C636        C  0.20215793  0.74147335  0.74990057    -0.16800
C637        C  0.20658728  0.80517970  0.75403485    -0.17100
Zn638      Zn  0.06036285  0.86555100  0.92883777     1.49700
Zn639      Zn  0.14196461  0.86488077  0.93080130     1.49400
Zn640      Zn  0.11563469  0.89238665  0.88236737     1.49100
Zn641      Zn  0.14171461  0.94780526  0.92887841     1.49500
O642        O  0.11495504  0.89269399  0.92116365    -1.84000
O643        O  0.04787662  0.81587328  0.95070038    -0.74600
O644        O  0.15737326  0.84768834  0.89583864    -0.74400
O645        O  0.07311547  0.89729657  0.86597768    -0.73900
O646        O  0.10448700  0.81577610  0.95252916    -0.74600
O647        O  0.03034640  0.84978644  0.89247222    -0.74200
O648        O  0.11152294  0.84424975  0.86767317    -0.74800
O649        O  0.15264350  0.97746817  0.89188673    -0.74200
O650        O  0.19146370  0.90268905  0.95157541    -0.74900
O651        O  0.16249316  0.93651754  0.86735959    -0.74300
O652        O  0.19254037  0.96047754  0.94934752    -0.74800
O653        O  0.10422605  0.95918984  0.95072440    -0.74700
O654        O  0.04759784  0.90266877  0.94947698    -0.74500
C655        C  0.06815757  0.79990890  0.95799086     0.77300
C656        C  0.13955514  0.83818412  0.87267814     0.77800
C657        C  0.03983791  0.86780993  0.86924663     0.76800
C658        C  0.16099863  0.96795503  0.86895368     0.77100
C659        C  0.20801865  0.93954183  0.95655465     0.78300
C660        C  0.06789493  0.93873226  0.95639534     0.77300
Zn661      Zn  0.27187206  0.80391704  0.43070249     1.49700
Zn662      Zn  0.19064076  0.72118716  0.42847825     1.49400
Zn663      Zn  0.19014364  0.80434725  0.42929190     1.49100
Zn664      Zn  0.21920303  0.77878472  0.38204247     1.49500
O665        O  0.21762494  0.77672781  0.42083656    -1.84000
O666        O  0.28407612  0.76608327  0.45183378    -0.74600
O667        O  0.14016770  0.70837342  0.44905955    -0.74400
O668        O  0.22751377  0.85392394  0.45108960    -0.73900
O669        O  0.22810233  0.70892939  0.45077053    -0.74600
O670        O  0.28341703  0.85244446  0.45238100    -0.74200
O671        O  0.14099241  0.76601227  0.45044093    -0.74800
O672        O  0.22269462  0.82719558  0.36745294    -0.74200
O673        O  0.17829853  0.69147921  0.39164831    -0.74900
O674        O  0.17359948  0.81967125  0.39289939    -0.74300
O675        O  0.17348656  0.73506522  0.36490605    -0.74800
O676        O  0.26395591  0.77667513  0.36768622    -0.74700
O677        O  0.30510186  0.82167327  0.39623257    -0.74500
C678        C  0.26407923  0.72943120  0.45764903     0.77300
C679        C  0.12472646  0.72914042  0.45599204     0.77800
C680        C  0.26341088  0.86891428  0.45818945     0.76800
C681        C  0.19216691  0.82953134  0.37016075     0.77100
C682        C  0.17056679  0.70161357  0.36825996     0.78300
C683        C  0.29747819  0.80497212  0.37288590     0.77300
C684        C  0.11014857  0.89065425  0.29120578     0.45600
H685        H  0.11298702  0.89125759  0.31407807    -0.03400
C686        C  0.10388588  0.88931564  0.23831126     0.45700
H687        H  0.10127414  0.88887160  0.21544408    -0.03400
C688        C  0.06810764  0.86676787  0.28115196    -0.17100
C689        C  0.12612867  0.93145302  0.27820070    -0.16800
C690        C  0.13183490  0.87244918  0.27727613    -0.17200
C691        C  0.06472016  0.86615838  0.25300897    -0.17200
C692        C  0.12288197  0.93083059  0.25006809    -0.16800
C693        C  0.12840953  0.87143003  0.24901967    -0.17100
Zn694      Zn  0.19787790  0.72442991  0.10062652     1.49700
Zn695      Zn  0.19860141  0.80851518  0.09969704     1.49400
Zn696      Zn  0.22397942  0.78028685  0.14805224     1.49100
Zn697      Zn  0.27998751  0.80576940  0.10170860     1.49500
O698        O  0.22486159  0.77942368  0.10926816    -1.84000
O699        O  0.14775302  0.71289838  0.07994446    -0.74600
O700        O  0.18540471  0.82889377  0.13455595    -0.74400
O701        O  0.22483211  0.73528555  0.16549376    -0.73900
O702        O  0.14760740  0.77017226  0.07976864    -0.74600
O703        O  0.18212712  0.69245266  0.13625755    -0.74200
O704        O  0.17901695  0.78162411  0.16282672    -0.74800
O705        O  0.30901218  0.81534855  0.13840437    -0.74200
O706        O  0.23699078  0.85681737  0.07719462    -0.74900
O707        O  0.26887230  0.82685842  0.16206360    -0.74300
O708        O  0.29408563  0.85777985  0.08144960    -0.74800
O709        O  0.29178266  0.76835429  0.07994381    -0.74700
O710        O  0.23530282  0.71165093  0.07959032    -0.74500
C711        C  0.13150874  0.73350822  0.07407686     0.77300
C712        C  0.17638373  0.81211613  0.15818109     0.77800
C713        C  0.19785506  0.70100351  0.16013587     0.76800
C714        C  0.29932027  0.82411760  0.16103667     0.77100
C715        C  0.27374432  0.87328670  0.07307026     0.78300
C716        C  0.27153320  0.73200912  0.07366154     0.77300
Zn717      Zn  0.31024816  0.94831456  0.99996991     1.49700
Zn718      Zn  0.30930465  0.69733951  0.00080707     1.49400
Zn719      Zn  0.00387488  0.66908922  0.05680139     1.49100
Zn720      Zn  0.05747264  0.69670238  0.00165302     1.49500
O721        O  0.00362491  0.66973793  0.01574655    -1.84000
O722        O  0.26159121  0.93744135  0.97795847    -0.74600
O723        O  0.28944553  0.71597868  0.03177945    -0.74400
O724        O  0.30965947  0.94361237  0.06960852    -0.73900
O725        O  0.26180040  0.99438391  0.97768015    -0.74600
O726        O  0.29110145  0.90857691  0.03103981    -0.74200
O727        O  0.30679040  0.69668277  0.07029416    -0.74800
O728        O  0.09625561  0.71582099  0.03252809    -0.74200
O729        O  0.01325044  0.74658225  0.97947463    -0.74900
O730        O  0.06152022  0.69850889  0.07115721    -0.74300
O731        O  0.06907890  0.74559698  0.97963718    -0.74800
O732        O  0.06880180  0.99311113  0.97828441    -0.74700
O733        O  0.01297371  0.93657409  0.97798483    -0.74500
C734        C  0.24587690  0.95817312  0.97134770     0.77300
C735        C  0.29016851  0.71373484  0.05790855     0.77800
C736        C  0.29276475  0.91054802  0.05719848     0.76800
C737        C  0.09432402  0.71497243  0.05863790     0.77100
C738        C  0.04911734  0.76202688  0.97310189     0.78300
C739        C  0.04884743  0.95711776  0.97155898     0.77300
Zn740      Zn  0.33137789  0.99798510  0.55768414     1.49700
Zn741      Zn  0.02219433  0.96940231  0.50096167     1.49400
Zn742      Zn  0.27590190  0.97065145  0.50309489     1.49100
Zn743      Zn  0.02460720  0.72003039  0.50127969     1.49500
O744        O  0.33044062  0.99784145  0.51658041    -1.84000
O745        O  0.02641082  0.96802487  0.57049503    -0.74600
O746        O  0.31866517  0.92166782  0.47970169    -0.74400
O747        O  0.23818664  0.95127332  0.53433636    -0.73900
O748        O  0.04259692  0.94967837  0.53180738    -0.74600
O749        O  0.27406352  0.96877755  0.57271358    -0.74200
O750        O  0.26271665  0.92223397  0.48063107    -0.74800
O751        O  0.31935537  0.73048604  0.47888230    -0.74200
O752        O  0.07142362  0.67389111  0.47770349    -0.74900
O753        O  0.26305177  0.67425530  0.47963286    -0.74300
O754        O  0.07217579  0.73109225  0.47825885    -0.74800
O755        O  0.04543132  0.75904163  0.53250615    -0.74700
O756        O  0.02746117  0.72267155  0.57098932    -0.74500
C757        C  0.04261763  0.95131627  0.55794529     0.77300
C758        C  0.28257360  0.90625148  0.47356846     0.77800
C759        C  0.24085049  0.95223288  0.56043588     0.76800
C760        C  0.28319476  0.71038340  0.47276821     0.77100
C761        C  0.08736507  0.71030938  0.47126621     0.78300
C762        C  0.04447787  0.75625658  0.55869040     0.77300
C763        C  0.02945917  0.84549820  0.23592525    -0.05900
C764        C  0.03122547  0.82124421  0.21569753    -0.17100
C765        C  0.00946824  0.81308755  0.19153639     0.11200
C766        C  0.32075530  0.82795388  0.18698979    -0.05900
C767        C  0.97997859  0.85010513  0.20895731    -0.17100
C768        C  0.00147934  0.85780534  0.23338549     0.11300
S769        S  0.01397965  0.78085621  0.16753639    -0.32100
S770        S  0.99320288  0.88543864  0.25920630    -0.32100
H771        H  0.03198951  0.90725459  0.26765354     0.29300
H772        H  0.31039891  0.75791820  0.16052456     0.29300
H773        H  0.05193115  0.81078709  0.21788959     0.19900
H774        H  0.29415777  0.85767830  0.20729677     0.19900
C775        C  0.14171759  0.96450691  0.23090883    -0.05900
C776        C  0.18245949  0.98477473  0.22973842    -0.17100
C777        C  0.20277362  0.67152374  0.20582783     0.11200
C778        C  0.18069339  0.67302405  0.18311947    -0.05900
C779        C  0.13923403  0.98896816  0.18518251    -0.17100
C780        C  0.12006856  0.96785432  0.20877405     0.11300
S781        S  0.25517417  0.69533276  0.20562121    -0.32100
S782        S  0.06784254  0.94541034  0.21043538    -0.32100
H783        H  0.06151072  0.95323198  0.18302865     0.29300
H784        H  0.25793572  0.69106405  0.17713300     0.29300
H785        H  0.19916902  0.98141233  0.24639501     0.19900
H786        H  0.12251266  0.99194999  0.16838302     0.19900
C787        C  0.16499096  0.82839351  0.18142955    -0.05900
C788        C  0.14440199  0.80281637  0.20339623    -0.16500
C789        C  0.13406632  0.81598066  0.22672641     0.11200
C790        C  0.14524049  0.85613989  0.22877000    -0.05900
C791        C  0.16688371  0.88194807  0.20728014    -0.17100
C792        C  0.17707028  0.86880243  0.18387395     0.11300
S793        S  0.10481183  0.77925860  0.25192569    -0.32100
S794        S  0.20625167  0.90545857  0.15851764    -0.32100
H795        H  0.23405136  0.89298654  0.15707427     0.29300
H796        H  0.08253775  0.79675356  0.25838803     0.29300
H797        H  0.13530913  0.77180828  0.20214881     0.19900
H798        H  0.17532634  0.91278788  0.20849677     0.19900
C799        C  0.16155910  0.67649836  0.34384134    -0.05900
C800        C  0.13382213  0.67489171  0.32470216    -0.17100
C801        C  0.12384131  0.98660129  0.30230854     0.11200
C802        C  0.14350122  0.96580205  0.29644285    -0.05900
C803        C  0.17326188  0.96911700  0.31414505    -0.17100
C804        C  0.18206734  0.99045881  0.33853345     0.11300
S805        S  0.08856924  0.65023696  0.27711552    -0.32100
S806        S  0.22218515  0.99547382  0.35979001    -0.32100
H807        H  0.23348927  0.97386322  0.34302096     0.29300
H808        H  0.07810712  0.01004577  0.29449576     0.29300
H809        H  0.11820337  0.69044385  0.32900020     0.19900
H810        H  0.18817665  0.95296055  0.30951267     0.19900
C811        C  0.03696893  0.84960938  0.30184996    -0.05900
C812        C  0.03802754  0.87552652  0.32189202    -0.17100
C813        C  0.01647788  0.86190112  0.34592807     0.11200
C814        C  0.32591308  0.81990229  0.35036746    -0.05900
C815        C  0.32352424  0.79330230  0.33021294    -0.17100
C816        C  0.01246468  0.80883165  0.30552872     0.11300
S817        S  0.01999293  0.89838770  0.36972822    -0.32100
S818        S  0.01024311  0.77400824  0.28066489    -0.32100
H819        H  0.98013713  0.74005763  0.29315773     0.29300
H820        H  0.36959893  0.88445916  0.39081215     0.29300
H821        H  0.05701029  0.90691052  0.31917802     0.19900
H822        H  0.30390132  0.76215942  0.33334748     0.19900
C823        C  0.17675291  0.83965230  0.34546801    -0.05900
C824        C  0.20308116  0.86780393  0.32675631    -0.17100
C825        C  0.19024787  0.87659013  0.30199783     0.11200
C826        C  0.15019739  0.85580198  0.29541021    -0.05900
C827        C  0.12443403  0.82589435  0.31327602    -0.17100
C828        C  0.13705935  0.81758805  0.33816712     0.11300
S829        S  0.22652968  0.91548169  0.28074356    -0.32100
S830        S  0.10215503  0.77813758  0.35987495    -0.32100
H831        H  0.06898451  0.76792862  0.34341629     0.29300
H832        H  0.20182047  0.92172971  0.26306629     0.29300
H833        H  0.23385520  0.88376545  0.33180026     0.19900
H834        H  0.09362063  0.81073877  0.30847003     0.19900
C835        C  0.30097992  0.81181630  0.79813851    -0.05900
C836        C  0.32792268  0.85209103  0.79693698    -0.17100
C837        C  0.35036316  0.87141804  0.82008935     0.11200
C838        C  0.01462093  0.85100662  0.84489416    -0.05900
C839        C  0.32304708  0.80878223  0.84444388    -0.17100
C840        C  0.30092427  0.78972845  0.82137430     0.11300
S841        S  0.04742322  0.92560645  0.81800896    -0.32100
S842        S  0.27455216  0.73696361  0.82146867    -0.32100
H843        H  0.27570699  0.73133363  0.85010529     0.29300
H844        H  0.03807888  0.93213184  0.84458367     0.29300
H845        H  0.32831555  0.86937630  0.77914072     0.19900
H846        H  0.99094785  0.79284658  0.86232587     0.19900
C847        C  0.18139884  0.70251449  0.79531162    -0.05900
C848        C  0.15815387  0.70449808  0.81610269    -0.17100
C849        C  0.15001750  0.68193305  0.84008497     0.11200
C850        C  0.16553457  0.99087083  0.84330852    -0.05900
C851        C  0.18296719  0.98431691  0.82029344    -0.17100
C852        C  0.19245485  0.67334537  0.79698367     0.11300
S853        S  0.11952929  0.68735851  0.86497599    -0.32100
S854        S  0.22053232  0.66637205  0.77088247    -0.32100
H855        H  0.24523849  0.70642933  0.76499392     0.29300
H856        H  0.09660223  0.64679257  0.87024922     0.29300
H857        H  0.14838741  0.72588767  0.81444372     0.19900
H858        H  0.19282892  0.96295209  0.82158514     0.19900
C859        C  0.15517780  0.82610651  0.84981453    -0.05900
C860        C  0.19561489  0.84631909  0.84695753    -0.17100
C861        C  0.21312005  0.84266180  0.82342027     0.11200
C862        C  0.19003232  0.81699094  0.80231693    -0.05900
C863        C  0.14940923  0.79722869  0.80471349    -0.17100
C864        C  0.13168429  0.80147905  0.82825835     0.11300
S865        S  0.26513178  0.87290731  0.82160386    -0.32100
S866        S  0.07932654  0.77331314  0.83012218    -0.32100
H867        H  0.07797305  0.76808652  0.85892808     0.29300
H868        H  0.26809328  0.87081690  0.79298582     0.29300
H869        H  0.21385076  0.86675359  0.86267997     0.19900
H870        H  0.13156355  0.77662636  0.78895873     0.19900
C871        C  0.00924152  0.82555294  0.68536852    -0.05900
C872        C  0.32710879  0.84913857  0.69030010    -0.17100
C873        C  0.30578898  0.84498223  0.71396997     0.11200
C874        C  0.29957917  0.81538514  0.73338880    -0.05900
C875        C  0.31818562  0.79313601  0.73021016    -0.17100
C876        C  0.00345474  0.79529389  0.70426818     0.11300
S877        S  0.28725043  0.87813888  0.71954616    -0.32100
S878        S  0.02019509  0.76077555  0.69814081    -0.32100
H879        H  0.01847404  0.76242344  0.66920967     0.29300
H880        H  0.30013591  0.89951071  0.69466910     0.29300
H881        H  0.33174468  0.87182814  0.67529610     0.19900
H882        H  0.31308953  0.77007328  0.74503286     0.19900
C883        C  0.15369786  0.99712876  0.68171684    -0.05900
C884        C  0.12839212  0.99813406  0.70149544    -0.17100
C885        C  0.14393465  0.68648053  0.72568233     0.11200
C886        C  0.18445029  0.70965787  0.72949390    -0.05900
C887        C  0.20975320  0.70823514  0.71016036    -0.17100
C888        C  0.19575821  0.68439719  0.68697456     0.11300
S889        S  0.11038798  0.68838336  0.74974304    -0.32100
S890        S  0.23021755  0.68114606  0.66447564    -0.32100
H891        H  0.26389444  0.70421150  0.68026442     0.29300
H892        H  0.07595905  0.66151493  0.73611803     0.29300
H893        H  0.09724675  0.98036377  0.69844886     0.19900
H894        H  0.24084411  0.72642432  0.71321083     0.19900
C895        C  0.16654512  0.84562062  0.68758079    -0.05900
C896        C  0.18749883  0.87217471  0.70881204    -0.17100
C897        C  0.19639294  0.85933446  0.73358547     0.11200
C898        C  0.18465132  0.81921041  0.73688546    -0.05900
C899        C  0.15961116  0.79246585  0.71726432    -0.17100
C900        C  0.15046733  0.80494376  0.69276325     0.11300
S901        S  0.22419475  0.89460615  0.75979758    -0.32100
S902        S  0.11868966  0.76715220  0.66920513    -0.32100
H903        H  0.09491005  0.78397371  0.66402045     0.29300
H904        H  0.22963057  0.92835967  0.74530533     0.29300
H905        H  0.19795628  0.90326958  0.70566411     0.19900
H906        H  0.14949048  0.76143095  0.72003156     0.19900
Zn907      Zn  0.47069026  0.19287581  0.60201186     1.49700
Zn908      Zn  0.47146848  0.27688234  0.60028171     1.49400
Zn909      Zn  0.38902115  0.19372593  0.60217114     1.49100
Zn910      Zn  0.44600198  0.22390658  0.64859789     1.49500
O911        O  0.44391476  0.22178253  0.60982858    -1.84000
O912        O  0.52192924  0.23104883  0.58210318    -0.74600
O913        O  0.43275613  0.28840264  0.57887969    -0.74400
O914        O  0.37606198  0.14283959  0.58153190    -0.73900
O915        O  0.52072737  0.28771800  0.57935815    -0.74600
O916        O  0.43283237  0.14307955  0.58022893    -0.74200
O917        O  0.37627757  0.23145239  0.58057279    -0.74800
O918        O  0.40339006  0.17682723  0.66587669    -0.74200
O919        O  0.48959382  0.31053807  0.63518068    -0.74900
O920        O  0.35936759  0.17935957  0.63858725    -0.74300
O921        O  0.44513723  0.26946218  0.66417981    -0.74800
O922        O  0.49444485  0.22792177  0.66141405    -0.74700
O923        O  0.48315110  0.17509938  0.63884136    -0.74500
C924        C  0.53741997  0.26737367  0.57491443     0.77300
C925        C  0.39626530  0.26774120  0.57350167     0.77800
C926        C  0.39630870  0.12689237  0.57474186     0.76800
C927        C  0.36930928  0.17100107  0.66177098     0.77100
C928        C  0.47380559  0.30299863  0.65891390     0.78300
C929        C  0.49349218  0.19524723  0.66085975     0.77300
C930        C  0.55885092  0.11260355  0.79196915     0.45600
H931        H  0.55881951  0.10976753  0.81481295    -0.03400
C932        C  0.55848548  0.11979259  0.73910278     0.45700
H933        H  0.55860367  0.12303278  0.71626477    -0.03400
C934        C  0.59962539  0.13147008  0.77946653    -0.17100
C935        C  0.53537698  0.07314267  0.77712771    -0.16800
C936        C  0.54091185  0.13754424  0.78203926    -0.17200
C937        C  0.59927715  0.13597048  0.75147593    -0.17200
C938        C  0.53543203  0.07703382  0.74895504    -0.16800
C939        C  0.53983713  0.14056434  0.75392806    -0.17100
Zn940      Zn  0.39353526  0.19866971  0.92872253     1.49700
Zn941      Zn  0.47543820  0.19850660  0.93116261     1.49400
Zn942      Zn  0.44855130  0.22422594  0.88224120     1.49100
Zn943      Zn  0.47503773  0.28115110  0.92802194     1.49500
O944        O  0.44818761  0.22587233  0.92095873    -1.84000
O945        O  0.38119917  0.14920613  0.95078332    -0.74600
O946        O  0.49152824  0.18132370  0.89653167    -0.74400
O947        O  0.40589143  0.22835941  0.86551238    -0.73900
O948        O  0.43792091  0.14934261  0.95273009    -0.74600
O949        O  0.36288359  0.18199144  0.89254260    -0.74200
O950        O  0.44423464  0.17538145  0.86887427    -0.74800
O951        O  0.48617293  0.30989421  0.89066624    -0.74200
O952        O  0.52451517  0.23671111  0.95213972    -0.74900
O953        O  0.49492538  0.26802338  0.86622831    -0.74300
O954        O  0.52578095  0.29451705  0.94891200    -0.74800
O955        O  0.43766827  0.29299175  0.94953023    -0.74700
O956        O  0.38115261  0.23627006  0.94912387    -0.74500
C957        C  0.40154870  0.13331211  0.95805570     0.77300
C958        C  0.47311238  0.17061508  0.87365151     0.77800
C959        C  0.37241154  0.19936411  0.86909784     0.76800
C960        C  0.49420176  0.29988654  0.86778996     0.77100
C961        C  0.54108107  0.27366778  0.95674340     0.78300
C962        C  0.40148287  0.27253424  0.95559240     0.77300
Zn963      Zn  0.60555700  0.13727816  0.43146814     1.49700
Zn964      Zn  0.52404069  0.05397804  0.42957842     1.49400
Zn965      Zn  0.52342238  0.13677110  0.43039482     1.49100
Zn966      Zn  0.55327727  0.11159862  0.38288312     1.49500
O967        O  0.55115929  0.10945306  0.42165241    -1.84000
O968        O  0.61785747  0.09962471  0.45251523    -0.74600
O969        O  0.47363146  0.04099991  0.45041354    -0.74400
O970        O  0.56084258  0.18695463  0.45159622    -0.73900
O971        O  0.56185103  0.04238584  0.45171399    -0.74600
O972        O  0.61677357  0.18557393  0.45306218    -0.74200
O973        O  0.47443218  0.09858368  0.45183815    -0.74800
O974        O  0.55555529  0.15951684  0.36866460    -0.74200
O975        O  0.51116874  0.02347093  0.39305050    -0.74900
O976        O  0.50622844  0.15126473  0.39413621    -0.74300
O977        O  0.50858811  0.06736094  0.36522500    -0.74800
O978        O  0.59893112  0.11119079  0.36854849    -0.74700
O979        O  0.63949130  0.15623468  0.39725836    -0.74500
C980        C  0.59787043  0.06300537  0.45841692     0.77300
C981        C  0.45815569  0.06171366  0.45738459     0.77800
C982        C  0.59679508  0.20214318  0.45858260     0.76800
C983        C  0.52463458  0.16112581  0.37135298     0.77100
C984        C  0.50425062  0.03343477  0.36932237     0.78300
C985        C  0.63216983  0.13991897  0.37378432     0.77300
C986        C  0.44228614  0.22079031  0.29165888     0.45600
H987        H  0.44472033  0.22142287  0.31455510    -0.03400
C988        C  0.43708232  0.21948860  0.23870930     0.45700
H989        H  0.43510495  0.21910174  0.21580951    -0.03400
C990        C  0.40032761  0.19747314  0.28126962    -0.17100
C991        C  0.45923530  0.26165733  0.27860286    -0.16800
C992        C  0.46362839  0.20193648  0.27806399    -0.17200
C993        C  0.39751040  0.19672499  0.25305064    -0.17200
C994        C  0.45641866  0.26104769  0.25042214    -0.16800
C995        C  0.46085775  0.20107791  0.24982007    -0.17100
Zn996      Zn  0.53099916  0.05693165  0.10078670     1.49700
Zn997      Zn  0.53113873  0.14100241  0.09964460     1.49400
Zn998      Zn  0.55634410  0.11258938  0.14793791     1.49100
Zn999      Zn  0.61286280  0.13902091  0.10172118     1.49500
O1000       O  0.55767770  0.11207926  0.10915050    -1.84000
O1001       O  0.48112257  0.04528933  0.07954631    -0.74600
O1002       O  0.51712305  0.16039203  0.13476950    -0.74400
O1003       O  0.55806966  0.06816886  0.16559920    -0.73900
O1004       O  0.48074877  0.10248297  0.07908820    -0.74600
O1005       O  0.51498286  0.02504690  0.13677102    -0.74200
O1006       O  0.51031512  0.11225200  0.16234283    -0.74800
O1007       O  0.64166426  0.14920269  0.13860921    -0.74200
O1008       O  0.56955497  0.19008078  0.07761337    -0.74900
O1009       O  0.60062014  0.15962938  0.16214575    -0.74300
O1010       O  0.62672319  0.19120983  0.08162608    -0.74800
O1011       O  0.62508997  0.10179979  0.07985221    -0.74700
O1012       O  0.56894952  0.04469219  0.07980265    -0.74500
C1013       C  0.46492530  0.06585025  0.07331321     0.77300
C1014       C  0.50775928  0.14285294  0.15814774     0.77800
C1015       C  0.53084756  0.03387041  0.16063109     0.76800
C1016       C  0.63166086  0.15794764  0.16114362     0.77100
C1017       C  0.60633729  0.20679817  0.07350711     0.78300
C1018       C  0.60508528  0.06537737  0.07363306     0.77300
Zn1019     Zn  0.64281345  0.28204297  0.00050629     1.49700
Zn1020     Zn  0.64237528  0.03046899  0.00038815     1.49400
Zn1021     Zn  0.33751639  0.00168777  0.05559406     1.49100
Zn1022     Zn  0.39100912  0.02943186  0.00058655     1.49500
O1023       O  0.33708622  0.00226114  0.01457533    -1.84000
O1024       O  0.59444429  0.27167210  0.97844074    -0.74600
O1025       O  0.62252078  0.04910442  0.03154406    -0.74400
O1026       O  0.64252761  0.27734031  0.07021610    -0.73900
O1027       O  0.59460390  0.32860818  0.97821903    -0.74600
O1028       O  0.62339818  0.24240003  0.03160114    -0.74200
O1029       O  0.64101842  0.03075492  0.06995180    -0.74800
O1030       O  0.42998149  0.04812203  0.03151203    -0.74200
O1031       O  0.34656501  0.07949057  0.97900892    -0.74900
O1032       O  0.39502947  0.03087160  0.07002453    -0.74300
O1033       O  0.40251354  0.07873797  0.97916827    -0.74800
O1034       O  0.40279130  0.32699454  0.97776578    -0.74700
O1035       O  0.34679322  0.27055272  0.97724486    -0.74500
C1036       C  0.57876753  0.29241536  0.97177759     0.77300
C1037       C  0.62383514  0.04731764  0.05769079     0.77800
C1038       C  0.62530318  0.24426894  0.05776041     0.76800
C1039       C  0.42790775  0.04723863  0.05762987     0.77100
C1040       C  0.38250823  0.09519273  0.97283072     0.78300
C1041       C  0.38266586  0.29106350  0.97084052     0.77300
Zn1042     Zn  0.66479863  0.33149176  0.55690811     1.49700
Zn1043     Zn  0.35669064  0.30348299  0.50037291     1.49400
Zn1044     Zn  0.60996299  0.30483629  0.50227778     1.49100
Zn1045     Zn  0.35738827  0.05237731  0.50198987     1.49500
O1046       O  0.66443567  0.33180028  0.51585516    -1.84000
O1047       O  0.36037841  0.30229681  0.57005475    -0.74600
O1048       O  0.65226803  0.25528983  0.47949501    -0.74400
O1049       O  0.57180816  0.28549346  0.53324122    -0.73900
O1050       O  0.37717015  0.28421117  0.53150718    -0.74600
O1051       O  0.60745458  0.30184763  0.57169364    -0.74200
O1052       O  0.59646975  0.25618861  0.48012087    -0.74800
O1053       O  0.65322610  0.06419757  0.47937269    -0.74200
O1054       O  0.40465702  0.00638570  0.47899472    -0.74900
O1055       O  0.59692365  0.00790029  0.48016367    -0.74300
O1056       O  0.40524872  0.06350594  0.47926985    -0.74800
O1057       O  0.37790510  0.09195314  0.53286624    -0.74700
O1058       O  0.36073276  0.05621634  0.57162240    -0.74500
C1059       C  0.37690371  0.28579601  0.55764812     0.77300
C1060       C  0.61615209  0.23987274  0.47343360     0.77800
C1061       C  0.57431824  0.28579604  0.55933850     0.76800
C1062       C  0.61704935  0.04404448  0.47337701     0.77100
C1063       C  0.42063915  0.04280578  0.47253027     0.78300
C1064       C  0.37730357  0.08962634  0.55906199     0.77300
C1065       C  0.36263355  0.17601519  0.23552763    -0.05900
C1066       C  0.36535945  0.15264097  0.21501431    -0.17100
C1067       C  0.34457470  0.14530764  0.19043642     0.11200
C1068       C  0.65350604  0.16297719  0.18707793    -0.05900
C1069       C  0.31329369  0.18039819  0.20821810    -0.17100
C1070       C  0.33421775  0.18770755  0.23289926     0.11300
S1071       S  0.35134514  0.11525024  0.16577541    -0.32100
S1072       S  0.32503946  0.21454450  0.25882540    -0.32100
H1073       H  0.36400697  0.23804598  0.26650759     0.29300
H1074       H  0.64388346  0.09255504  0.16147342     0.29300
H1075       H  0.38633253  0.14254808  0.21725387     0.19900
H1076       H  0.62690940  0.19324553  0.20662555     0.19900
C1077       C  0.47507215  0.29475044  0.23119920    -0.05900
C1078       C  0.51582602  0.31617326  0.23042398    -0.17100
C1079       C  0.53567892  0.00578124  0.20716405     0.11200
C1080       C  0.51375305  0.00625412  0.18395969    -0.05900
C1081       C  0.47258334  0.31993084  0.18569786    -0.17100
C1082       C  0.45339237  0.29775671  0.20892806     0.11300
S1083       S  0.58813570  0.03147348  0.20782358    -0.32100
S1084       S  0.40107056  0.27409947  0.21007150    -0.32100
H1085       H  0.39490873  0.28006051  0.18220801     0.29300
H1086       H  0.59201127  0.02646148  0.17961100     0.29300
H1087       H  0.53263328  0.31313598  0.24714216     0.19900
H1088       H  0.45577790  0.32274753  0.16889024     0.19900
C1089       C  0.49653435  0.15863200  0.18172373    -0.05900
C1090       C  0.47256058  0.13198224  0.20212653    -0.16500
C1091       C  0.46293659  0.14472775  0.22603067     0.11200
C1092       C  0.47763379  0.18536897  0.22991597    -0.05900
C1093       C  0.50259031  0.21205318  0.20999443    -0.17100
C1094       C  0.51275890  0.19935144  0.18634804     0.11300
S1095       S  0.43113185  0.10718307  0.24995239    -0.32100
S1096       S  0.54782802  0.23672880  0.16375037    -0.32100
H1097       H  0.57070030  0.21847740  0.16141201     0.29300
H1098       H  0.41422441  0.12824007  0.26028045     0.29300
H1099       H  0.46075797  0.10068088  0.19930307     0.19900
H1100       H  0.51382096  0.24328443  0.21269764     0.19900
C1101       C  0.49429145  0.00736119  0.34531753    -0.05900
C1102       C  0.46769630  0.00704944  0.32563588    -0.17100
C1103       C  0.45774480  0.31744897  0.30234005     0.11200
C1104       C  0.47687425  0.29604209  0.29685304    -0.05900
C1105       C  0.50647593  0.29921579  0.31471359    -0.17100
C1106       C  0.51586718  0.32146239  0.33875258     0.11300
S1107       S  0.42297220  0.98329192  0.27774173    -0.32100
S1108       S  0.55606444  0.32667277  0.36000271    -0.32100
H1109       H  0.56799063  0.30589928  0.34290195     0.29300
H1110       H  0.41380118  0.34277392  0.29336335     0.29300
H1111       H  0.45321927  0.02387050  0.32943495     0.19900
H1112       H  0.52089495  0.28251858  0.31045140     0.19900
C1113       C  0.36880506  0.18067481  0.30180549    -0.05900
C1114       C  0.36949965  0.20691612  0.32146598    -0.17100
C1115       C  0.34705726  0.19366256  0.34529493     0.11200
C1116       C  0.66049873  0.15564707  0.35115364    -0.05900
C1117       C  0.65826841  0.12945440  0.33073548    -0.17100
C1118       C  0.34412568  0.13997382  0.30570075     0.11300
S1119       S  0.34746544  0.22949981  0.36863770    -0.32100
S1120       S  0.34165328  0.10480379  0.28105692    -0.32100
H1121       H  0.31349391  0.07074173  0.29470642     0.29300
H1122       H  0.71494004  0.26617495  0.35726012     0.29300
H1123       H  0.38844433  0.23813493  0.31822692     0.19900
H1124       H  0.63895003  0.09823417  0.33372297     0.19900
C1125       C  0.50880017  0.17057577  0.34660549    -0.05900
C1126       C  0.53499123  0.19706963  0.32702819    -0.17100
C1127       C  0.52180134  0.20522918  0.30223849     0.11200
C1128       C  0.48157574  0.18515751  0.29636409    -0.05900
C1129       C  0.45583824  0.15655980  0.31496810    -0.17100
C1130       C  0.46871823  0.14949839  0.34018095     0.11300
S1131       S  0.55780796  0.24230298  0.27981436    -0.32100
S1132       S  0.43344945  0.11289193  0.36334647    -0.32100
H1133       H  0.39996130  0.10960496  0.35027404     0.29300
H1134       H  0.53373620  0.25432887  0.26648286     0.29300
H1135       H  0.56595666  0.21239744  0.33144137     0.19900
H1136       H  0.42492512  0.14172577  0.31051659     0.19900
C1137       C  0.63432715  0.14667760  0.79768562    -0.05900
C1138       C  0.66145790  0.18693830  0.79673291    -0.17100
C1139       C  0.68433882  0.20585851  0.81985875     0.11200
C1140       C  0.34689431  0.18255562  0.84487368    -0.05900
C1141       C  0.65696691  0.14285160  0.84369470    -0.17100
C1142       C  0.63440060  0.12419730  0.82064783     0.11300
S1143       S  0.38142543  0.25677039  0.81737010    -0.32100
S1144       S  0.60739355  0.07141267  0.82043914    -0.32100
H1145       H  0.60951523  0.06533531  0.84891986     0.29300
H1146       H  0.37115317  0.26382838  0.84346926     0.29300
H1147       H  0.66184930  0.20451936  0.77912542     0.19900
H1148       H  0.32156405  0.12454788  0.86282642     0.19900
C1149       C  0.51491198  0.03703160  0.79402908    -0.05900
C1150       C  0.49168848  0.03848497  0.81503943    -0.17100
C1151       C  0.48325949  0.01511733  0.83861767     0.11200
C1152       C  0.49948424  0.32306503  0.84220618    -0.05900
C1153       C  0.51902729  0.31809514  0.81982252    -0.17100
C1154       C  0.52561675  0.00755506  0.79500980     0.11300
S1155       S  0.45286827  0.02014658  0.86380900    -0.32100
S1156       S  0.55352307  0.00113924  0.76848088    -0.32100
H1157       H  0.57819587  0.04131557  0.76297824     0.29300
H1158       H  0.42977555  0.97949174  0.86864458     0.29300
H1159       H  0.48207186  0.06000671  0.81387363     0.19900
H1160       H  0.52982826  0.29750938  0.82150313     0.19900
C1161       C  0.48888343  0.15892594  0.85068439    -0.05900
C1162       C  0.52921036  0.18029227  0.84720852    -0.17100
C1163       C  0.54644841  0.17727896  0.82329630     0.11200
C1164       C  0.52318715  0.15130904  0.80238752    -0.05900
C1165       C  0.48266827  0.13034296  0.80544517    -0.17100
C1166       C  0.46523652  0.13369035  0.82944518     0.11300
S1167       S  0.59834204  0.20842681  0.82087267    -0.32100
S1168       S  0.41312389  0.10358876  0.83230891    -0.32100
H1169       H  0.41307646  0.09891761  0.86112997     0.29300
H1170       H  0.60107373  0.20539989  0.79233729     0.29300
H1171       H  0.54749133  0.20106203  0.86275157     0.19900
H1172       H  0.46478160  0.10939477  0.78987294     0.19900
C1173       C  0.34338735  0.16017400  0.68549299    -0.05900
C1174       C  0.66062871  0.18518809  0.69010813    -0.17100
C1175       C  0.64007131  0.18116603  0.71417875     0.11200
C1176       C  0.63263872  0.15037085  0.73281828    -0.05900
C1177       C  0.64867757  0.12607604  0.72819784    -0.17100
C1178       C  0.33597334  0.12848130  0.70346220     0.11300
S1179       S  0.62416811  0.21603249  0.72131601    -0.32100
S1180       S  0.35118375  0.09306572  0.69623532    -0.32100
H1181       H  0.35067481  0.09674306  0.66737224     0.29300
H1182       H  0.63241391  0.23448482  0.69522403     0.29300
H1183       H  0.66670118  0.20914946  0.67588133     0.19900
H1184       H  0.64225587  0.10183418  0.74225962     0.19900
C1185       C  0.49024493  0.33156114  0.68161659    -0.05900
C1186       C  0.46493656  0.33133132  0.70189808    -0.17100
C1187       C  0.47736967  0.02020365  0.72557465     0.11200
C1188       C  0.51779754  0.04563937  0.72820324    -0.05900
C1189       C  0.54284075  0.04584859  0.70793247    -0.17100
C1190       C  0.52885785  0.02107233  0.68535857     0.11300
S1191       S  0.44376109  0.02075882  0.75022006    -0.32100
S1192       S  0.56465953  0.02146642  0.66247851    -0.32100
H1193       H  0.54746186  0.98024726  0.66190091     0.29300
H1194       H  0.40958493  0.99045068  0.73839220     0.29300
H1195       H  0.43383600  0.31273821  0.69916548     0.19900
H1196       H  0.57391814  0.06544631  0.70986355     0.19900
C1197       C  0.50087654  0.18009520  0.68691601    -0.05900
C1198       C  0.52316466  0.20729693  0.70746289    -0.17100
C1199       C  0.53110474  0.19488594  0.73275935     0.11200
C1200       C  0.51770208  0.15462349  0.73711576    -0.05900
C1201       C  0.49147656  0.12747036  0.71817620    -0.17100
C1202       C  0.48279493  0.13953371  0.69326487     0.11300
S1203       S  0.55900150  0.23060047  0.75869499    -0.32100
S1204       S  0.44884129  0.10144334  0.67076913    -0.32100
H1205       H  0.42751004  0.12061428  0.66446777     0.29300
H1206       H  0.56509461  0.26414953  0.74360131     0.29300
H1207       H  0.53506163  0.23845559  0.70348182     0.19900
H1208       H  0.48004719  0.09634583  0.72183452     0.19900
Zn1209     Zn  0.47048658  0.52540584  0.60175416     1.49700
Zn1210     Zn  0.47120465  0.60926437  0.59986437     1.49400
Zn1211     Zn  0.38866010  0.52611472  0.60207368     1.49100
Zn1212     Zn  0.44571645  0.55668841  0.64841276     1.49500
O1213       O  0.44365087  0.55420481  0.60960875    -1.84000
O1214       O  0.52146155  0.56332973  0.58149766    -0.74600
O1215       O  0.43239956  0.62082361  0.57868982    -0.74400
O1216       O  0.37572780  0.47533394  0.58124314    -0.73900
O1217       O  0.52034183  0.62002298  0.57872215    -0.74600
O1218       O  0.43248063  0.47551421  0.57998160    -0.74200
O1219       O  0.37590410  0.56391105  0.58053077    -0.74800
O1220       O  0.40323647  0.50989846  0.66595804    -0.74200
O1221       O  0.48949886  0.64299958  0.63469725    -0.74900
O1222       O  0.35902183  0.51187066  0.63861204    -0.74300
O1223       O  0.44453830  0.60232885  0.66353482    -0.74800
O1224       O  0.49403045  0.56069736  0.66165733    -0.74700
O1225       O  0.48364321  0.50841302  0.63868207    -0.74500
C1226       C  0.53693910  0.59960399  0.57420621     0.77300
C1227       C  0.39586899  0.60020543  0.57345631     0.77800
C1228       C  0.39598876  0.45943790  0.57435788     0.76800
C1229       C  0.36912431  0.50400068  0.66192309     0.77100
C1230       C  0.47355091  0.63566365  0.65836805     0.78300
C1231       C  0.49376207  0.52835465  0.66081771     0.77300
C1232       C  0.55931331  0.44602523  0.79262710     0.45600
H1233       H  0.55873633  0.44312173  0.81547522    -0.03400
C1234       C  0.56009816  0.45325348  0.73973971     0.45700
H1235       H  0.56072724  0.45647844  0.71688713    -0.03400
C1236       C  0.60042834  0.46534302  0.78060767    -0.17100
C1237       C  0.53656071  0.40655657  0.77769703    -0.16800
C1238       C  0.54111788  0.47058370  0.78232075    -0.17200
C1239       C  0.60065804  0.46987293  0.75257830    -0.17200
C1240       C  0.53726262  0.41045626  0.74952260    -0.16800
C1241       C  0.54067118  0.47363238  0.75414457    -0.17100
Zn1242     Zn  0.39317262  0.53227232  0.92923363     1.49700
Zn1243     Zn  0.47495025  0.53169613  0.93120677     1.49400
Zn1244     Zn  0.44799221  0.55732222  0.88261113     1.49100
Zn1245     Zn  0.47471631  0.61451538  0.92830645     1.49500
O1246       O  0.44775037  0.55919808  0.92133976    -1.84000
O1247       O  0.38078971  0.48265394  0.95117725    -0.74600
O1248       O  0.49061062  0.51438330  0.89636947    -0.74400
O1249       O  0.40571306  0.56230040  0.86603727    -0.73900
O1250       O  0.43744331  0.48259930  0.95283143    -0.74600
O1251       O  0.36260855  0.51596659  0.89304496    -0.74200
O1252       O  0.44304188  0.50822483  0.86897808    -0.74800
O1253       O  0.48654059  0.64303470  0.89084273    -0.74200
O1254       O  0.52430827  0.56986979  0.95196984    -0.74900
O1255       O  0.49484269  0.60058654  0.86673221    -0.74300
O1256       O  0.52542415  0.62763848  0.94914183    -0.74800
O1257       O  0.43726360  0.62673044  0.94966967    -0.74700
O1258       O  0.38083913  0.56992352  0.94965515    -0.74500
C1259       C  0.40110570  0.46664141  0.95827520     0.77300
C1260       C  0.47205855  0.50360535  0.87353332     0.77800
C1261       C  0.37217629  0.53338211  0.86960895     0.76800
C1262       C  0.49470001  0.63274944  0.86812383     0.77100
C1263       C  0.54086698  0.60680002  0.95668218     0.78300
C1264       C  0.40111238  0.60627197  0.95590806     0.77300
Zn1265     Zn  0.60642909  0.47025131  0.43044682     1.49700
Zn1266     Zn  0.52507311  0.38721910  0.42928768     1.49400
Zn1267     Zn  0.52441037  0.47006391  0.42941374     1.49100
Zn1268     Zn  0.55317997  0.44376275  0.38219963     1.49500
O1269       O  0.55200390  0.44262329  0.42096028    -1.84000
O1270       O  0.61889232  0.43306340  0.45194114    -0.74600
O1271       O  0.47437762  0.37436833  0.44967935    -0.74400
O1272       O  0.56177938  0.51983643  0.45078036    -0.73900
O1273       O  0.56278255  0.37594937  0.45181573    -0.74600
O1274       O  0.61798651  0.51895508  0.45170530    -0.74200
O1275       O  0.47512720  0.43195719  0.45063149    -0.74800
O1276       O  0.55529770  0.49106769  0.36666851    -0.74200
O1277       O  0.51266839  0.35631183  0.39300680    -0.74900
O1278       O  0.50785743  0.48538338  0.39318745    -0.74300
O1279       O  0.50753395  0.39936965  0.36591328    -0.74800
O1280       O  0.59810201  0.44203990  0.36776121    -0.74700
O1281       O  0.63946414  0.48776554  0.39585781    -0.74500
C1282       C  0.59887124  0.39661970  0.45830685     0.77300
C1283       C  0.45879011  0.39511785  0.45630957     0.77800
C1284       C  0.59781468  0.53521625  0.45753588     0.76800
C1285       C  0.52539744  0.49435826  0.37005569     0.77100
C1286       C  0.50450359  0.36593869  0.36959784     0.78300
C1287       C  0.63147019  0.47083405  0.37257518     0.77300
C1288       C  0.44301914  0.55741034  0.29110085     0.45600
H1289       H  0.44589401  0.55877374  0.31396912    -0.03400
C1290       C  0.43675457  0.55445431  0.23823081     0.45700
H1291       H  0.43418899  0.55322445  0.21536170    -0.03400
C1292       C  0.40091742  0.53374219  0.28115766    -0.17100
C1293       C  0.45963797  0.59786136  0.27743476    -0.16800
C1294       C  0.46410502  0.53809367  0.27776496    -0.17200
C1295       C  0.39755219  0.53209759  0.25300853    -0.17200
C1296       C  0.45625058  0.59638526  0.24927574    -0.16800
C1297       C  0.46088903  0.53651920  0.24951555    -0.17100
Zn1298     Zn  0.53127935  0.39090388  0.10122468     1.49700
Zn1299     Zn  0.53104009  0.47464218  0.09979879     1.49400
Zn1300     Zn  0.55675527  0.44686644  0.14862488     1.49100
Zn1301     Zn  0.61309405  0.47300990  0.10213345     1.49500
O1302       O  0.55788573  0.44610370  0.10972675    -1.84000
O1303       O  0.48138182  0.37888493  0.07972784    -0.74600
O1304       O  0.51657668  0.49413798  0.13467048    -0.74400
O1305       O  0.55770871  0.40203296  0.16621686    -0.73900
O1306       O  0.48074885  0.43591374  0.07913561    -0.74600
O1307       O  0.51491410  0.35904422  0.13714353    -0.74200
O1308       O  0.51114533  0.44729951  0.16307132    -0.74800
O1309       O  0.64203169  0.48294771  0.13896382    -0.74200
O1310       O  0.56940855  0.52359093  0.07763213    -0.74900
O1311       O  0.60149744  0.49331280  0.16318538    -0.74300
O1312       O  0.62673605  0.52506526  0.08184497    -0.74800
O1313       O  0.62547294  0.43575342  0.08035393    -0.74700
O1314       O  0.56946021  0.37856416  0.08057423    -0.74500
C1315       C  0.46504276  0.39928158  0.07338830     0.77300
C1316       C  0.50775630  0.47731852  0.15831326     0.77800
C1317       C  0.53053593  0.36778348  0.16107119     0.76800
C1318       C  0.63230184  0.49122892  0.16179232     0.77100
C1319       C  0.60619775  0.54040591  0.07353197     0.78300
C1320       C  0.60558195  0.39923484  0.07435985     0.77300
Zn1321     Zn  0.64288788  0.61540397  0.00030059     1.49700
Zn1322     Zn  0.64281099  0.36413897  0.00115087     1.49400
Zn1323     Zn  0.33740770  0.33467075  0.05562860     1.49100
Zn1324     Zn  0.39082552  0.36278141  0.00066990     1.49500
O1325       O  0.33683417  0.33544810  0.01459061    -1.84000
O1326       O  0.59435674  0.60481181  0.97825278    -0.74600
O1327       O  0.62312706  0.38289578  0.03234156    -0.74400
O1328       O  0.64161737  0.61089712  0.06999606    -0.73900
O1329       O  0.59475036  0.66186938  0.97767351    -0.74600
O1330       O  0.62363357  0.57575214  0.03147492    -0.74200
O1331       O  0.64130121  0.36424569  0.07076390    -0.74800
O1332       O  0.43000785  0.38164526  0.03154865    -0.74200
O1333       O  0.34610887  0.41262604  0.97911415    -0.74900
O1334       O  0.39506788  0.36379933  0.07005493    -0.74300
O1335       O  0.40215356  0.41204464  0.97926645    -0.74800
O1336       O  0.40235487  0.66075907  0.97805632    -0.74700
O1337       O  0.34638810  0.60434704  0.97762266    -0.74500
C1338       C  0.57872523  0.62557636  0.97149901     0.77300
C1339       C  0.62434205  0.38105798  0.05848872     0.77800
C1340       C  0.62501848  0.57775888  0.05763811     0.76800
C1341       C  0.42797255  0.38049565  0.05767487     0.77100
C1342       C  0.38208170  0.42844465  0.97296909     0.78300
C1343       C  0.38225577  0.62483299  0.97115308     0.77300
Zn1344     Zn  0.66431065  0.66388897  0.55630193     1.49700
Zn1345     Zn  0.35555592  0.63586098  0.50076324     1.49400
Zn1346     Zn  0.60963575  0.63704509  0.50153874     1.49100
Zn1347     Zn  0.35803343  0.38610247  0.50087927     1.49500
O1348       O  0.66398565  0.66414302  0.51528182    -1.84000
O1349       O  0.36046264  0.63530254  0.57025629    -0.74600
O1350       O  0.65288955  0.58811241  0.47895457    -0.74400
O1351       O  0.57131475  0.61731703  0.53247269    -0.73900
O1352       O  0.37613880  0.61638217  0.53163444    -0.74600
O1353       O  0.60693828  0.63424899  0.57095136    -0.74200
O1354       O  0.59697748  0.58884406  0.47918836    -0.74800
O1355       O  0.65419153  0.39818330  0.47966976    -0.74200
O1356       O  0.40476924  0.33975680  0.47745921    -0.74900
O1357       O  0.59805272  0.34173397  0.48024983    -0.74300
O1358       O  0.40601639  0.39717959  0.47823890    -0.74800
O1359       O  0.37855504  0.42519000  0.53215063    -0.74700
O1360       O  0.35963062  0.38884929  0.57060268    -0.74500
C1361       C  0.37644183  0.61833104  0.55775797     0.77300
C1362       C  0.61688668  0.57273241  0.47258645     0.77800
C1363       C  0.57381107  0.61792495  0.55858295     0.76800
C1364       C  0.61808692  0.37788810  0.47349837     0.77100
C1365       C  0.42111916  0.37629505  0.47128445     0.78300
C1366       C  0.37706287  0.42244245  0.55833723     0.77300
C1367       C  0.36229710  0.51091138  0.23600191    -0.05900
C1368       C  0.36407389  0.48614184  0.21618100    -0.17100
C1369       C  0.34283022  0.47794824  0.19176640     0.11200
C1370       C  0.65422448  0.49516969  0.18755871    -0.05900
C1371       C  0.31338182  0.51543424  0.20835201    -0.17100
C1372       C  0.33444629  0.52328647  0.23297016     0.11300
S1373       S  0.34748469  0.44538963  0.16816103    -0.32100
S1374       S  0.32636913  0.55180180  0.25817477    -0.32100
H1375       H  0.36535427  0.57433845  0.26602981     0.29300
H1376       H  0.64324123  0.42511303  0.16085073     0.29300
H1377       H  0.38456799  0.47548278  0.21882753     0.19900
H1378       H  0.62792089  0.52474349  0.20839548     0.19900
C1379       C  0.47492624  0.62941894  0.22952365    -0.05900
C1380       C  0.51566314  0.65127659  0.22915049    -0.17100
C1381       C  0.53517140  0.33876895  0.20717392     0.11200
C1382       C  0.51322520  0.34011761  0.18428825    -0.05900
C1383       C  0.47304076  0.65277708  0.18327064    -0.17100
C1384       C  0.45352390  0.63135753  0.20665936     0.11300
S1385       S  0.58761197  0.36327389  0.20738893    -0.32100
S1386       S  0.40114007  0.60729563  0.20725391    -0.32100
H1387       H  0.39545362  0.61749146  0.18034493     0.29300
H1388       H  0.59092043  0.35886313  0.17899560     0.29300
H1389       H  0.53228152  0.64898440  0.24631456     0.19900
H1390       H  0.45643431  0.65458230  0.16593344     0.19900
C1391       C  0.49617769  0.49330076  0.18160348    -0.05900
C1392       C  0.47379906  0.46714573  0.20281319    -0.16500
C1393       C  0.46420489  0.48023931  0.22656990     0.11200
C1394       C  0.47764240  0.52078117  0.22961532    -0.05900
C1395       C  0.50098251  0.54701909  0.20886685    -0.17100
C1396       C  0.51067375  0.53398805  0.18518373     0.11300
S1397       S  0.43392486  0.44322125  0.25135228    -0.32100
S1398       S  0.54262210  0.57106748  0.16102611    -0.32100
H1399       H  0.56799420  0.55562463  0.15903903     0.29300
H1400       H  0.41570104  0.46337539  0.26108867     0.29300
H1401       H  0.46313596  0.43590863  0.20072895     0.19900
H1402       H  0.51112069  0.57815903  0.21087832     0.19900
C1403       C  0.49441862  0.34022217  0.34546498    -0.05900
C1404       C  0.46662623  0.33922886  0.32663218    -0.17100
C1405       C  0.45800040  0.65343261  0.30127058     0.11200
C1406       C  0.47765144  0.63269227  0.29526073    -0.05900
C1407       C  0.50757793  0.63608059  0.31286097    -0.17100
C1408       C  0.51654758  0.65753306  0.33725349     0.11300
S1409       S  0.42058672  0.31550974  0.27940029    -0.32100
S1410       S  0.55655940  0.66228313  0.35849916    -0.32100
H1411       H  0.56962395  0.64333898  0.34058784     0.29300
H1412       H  0.40727302  0.67056415  0.29601687     0.29300
H1413       H  0.45143891  0.35510757  0.33125769     0.19900
H1414       H  0.52230667  0.61975859  0.30825999     0.19900
C1415       C  0.36978531  0.51711810  0.30193258    -0.05900
C1416       C  0.37112315  0.54334944  0.32186873    -0.17100
C1417       C  0.34924258  0.53008230  0.34594580     0.11200
C1418       C  0.65929947  0.48611820  0.34974218    -0.05900
C1419       C  0.65801784  0.45952094  0.33004010    -0.17100
C1420       C  0.34501948  0.47643574  0.30577917     0.11300
S1421       S  0.35187846  0.56590496  0.37029975    -0.32100
S1422       S  0.34264184  0.44110195  0.28130438    -0.32100
H1423       H  0.31565971  0.40698514  0.29553168     0.29300
H1424       H  0.64284867  0.54607055  0.36804415     0.29300
H1425       H  0.39038107  0.57455961  0.31874447     0.19900
H1426       H  0.63882981  0.42831537  0.33330831     0.19900
C1427       C  0.50953467  0.50490592  0.34576166    -0.05900
C1428       C  0.53548601  0.52986681  0.32540371    -0.17100
C1429       C  0.52194565  0.53889372  0.30107535     0.11200
C1430       C  0.48152688  0.52098574  0.29636306    -0.05900
C1431       C  0.45581973  0.49391484  0.31575579    -0.17100
C1432       C  0.46909591  0.48629050  0.34059094     0.11300
S1433       S  0.55772765  0.57417925  0.27765296    -0.32100
S1434       S  0.43373688  0.45208978  0.36488313    -0.32100
H1435       H  0.40037977  0.44941761  0.35202274     0.29300
H1436       H  0.53498598  0.58941811  0.26642212     0.29300
H1437       H  0.56660935  0.54338764  0.32885669     0.19900
H1438       H  0.42479317  0.48063774  0.31212176     0.19900
C1439       C  0.63475362  0.48070266  0.79923042    -0.05900
C1440       C  0.66237470  0.52081557  0.79791434    -0.17100
C1441       C  0.68544542  0.53998074  0.82091112     0.11200
C1442       C  0.34663155  0.51656816  0.84538675    -0.05900
C1443       C  0.65675789  0.47755653  0.84557910    -0.17100
C1444       C  0.63423912  0.45860638  0.82262282     0.11300
S1445       S  0.38223895  0.59031043  0.81725827    -0.32100
S1446       S  0.60687119  0.40584758  0.82309077    -0.32100
H1447       H  0.60932857  0.40025406  0.85160547     0.29300
H1448       H  0.37180434  0.59804609  0.84307841     0.29300
H1449       H  0.66317990  0.53816192  0.78004464     0.19900
H1450       H  0.32048450  0.45879829  0.86379980     0.19900
C1451       C  0.51603042  0.37036314  0.79447756    -0.05900
C1452       C  0.49193228  0.37130685  0.81502729    -0.17100
C1453       C  0.48332069  0.34804012  0.83868529     0.11200
C1454       C  0.50065424  0.65591512  0.84247068    -0.05900
C1455       C  0.52038575  0.65065650  0.82032599    -0.17100
C1456       C  0.52760084  0.34155269  0.79598824     0.11300
S1457       S  0.45174672  0.35224934  0.86326853    -0.32100
S1458       S  0.55708789  0.33617239  0.77018785    -0.32100
H1459       H  0.58115905  0.37649178  0.76482986     0.29300
H1460       H  0.42970698  0.31161605  0.86855484     0.29300
H1461       H  0.48178627  0.39239952  0.81346196     0.19900
H1462       H  0.53094822  0.62989240  0.82225592     0.19900
C1463       C  0.48790961  0.49205703  0.85044464    -0.05900
C1464       C  0.52834163  0.51276731  0.84748185    -0.17100
C1465       C  0.54595993  0.50978456  0.82376045     0.11200
C1466       C  0.52303695  0.48432996  0.80250188    -0.05900
C1467       C  0.48241245  0.46392925  0.80504648    -0.17100
C1468       C  0.46456100  0.46744690  0.82881370     0.11300
S1469       S  0.59798306  0.54031291  0.82204024    -0.32100
S1470       S  0.41227665  0.43832149  0.83086374    -0.32100
H1471       H  0.41131682  0.43259158  0.85961296     0.29300
H1472       H  0.60110861  0.53874056  0.79338949     0.29300
H1473       H  0.54649884  0.53305590  0.86329673     0.19900
H1474       H  0.46470711  0.44335398  0.78923520     0.19900
C1475       C  0.34336650  0.49361978  0.68580194    -0.05900
C1476       C  0.66261852  0.52000151  0.69165174    -0.17100
C1477       C  0.64215644  0.51585370  0.71583877     0.11200
C1478       C  0.63440589  0.48467429  0.73420835    -0.05900
C1479       C  0.65020521  0.46024616  0.72928503    -0.17100
C1480       C  0.33862926  0.46440585  0.70536832     0.11300
S1481       S  0.62632089  0.55069584  0.72336859    -0.32100
S1482       S  0.35760377  0.43147317  0.70044358    -0.32100
H1483       H  0.35487401  0.43113421  0.67150544     0.29300
H1484       H  0.63755304  0.57165528  0.69823793     0.29300
H1485       H  0.66875887  0.54410116  0.67754375     0.19900
H1486       H  0.64359026  0.43575408  0.74314826     0.19900
C1487       C  0.49030069  0.66405344  0.68116339    -0.05900
C1488       C  0.46525771  0.66379719  0.70168223    -0.17100
C1489       C  0.47922348  0.35496547  0.72537667     0.11200
C1490       C  0.51972590  0.37908477  0.72872477    -0.05900
C1491       C  0.54492270  0.37877380  0.70877852    -0.17100
C1492       C  0.53086508  0.35515893  0.68546359     0.11300
S1493       S  0.44555878  0.35581278  0.74984126    -0.32100
S1494       S  0.56541159  0.35387201  0.66196300    -0.32100
H1495       H  0.59937474  0.38418845  0.67402991     0.29300
H1496       H  0.41134227  0.32589233  0.73777556     0.29300
H1497       H  0.43410553  0.64534522  0.69907981     0.19900
H1498       H  0.57597479  0.39748856  0.71153415     0.19900
C1499       C  0.50166785  0.51318849  0.68671659    -0.05900
C1500       C  0.52297680  0.54015370  0.70768429    -0.17100
C1501       C  0.53115509  0.52759044  0.73287446     0.11200
C1502       C  0.51874474  0.48745456  0.73680017    -0.05900
C1503       C  0.49364319  0.46041451  0.71732598    -0.17100
C1504       C  0.48493448  0.47258627  0.69248120     0.11300
S1505       S  0.55803359  0.56298172  0.75924036    -0.32100
S1506       S  0.45262719  0.43447603  0.66932055    -0.32100
H1507       H  0.42935798  0.45178012  0.66377147     0.29300
H1508       H  0.56422402  0.59662348  0.74423984     0.29300
H1509       H  0.53388018  0.57121314  0.70413621     0.19900
H1510       H  0.48310965  0.42948069  0.72053872     0.19900
Zn1511     Zn  0.47044639  0.85806776  0.60188000     1.49700
Zn1512     Zn  0.47071086  0.94188563  0.60089200     1.49400
Zn1513     Zn  0.38867974  0.85871438  0.60244131     1.49100
Zn1514     Zn  0.44584432  0.88824577  0.64899217     1.49500
O1515       O  0.44354088  0.88669422  0.61015075    -1.84000
O1516       O  0.52145986  0.89678000  0.58191061    -0.74600
O1517       O  0.43218290  0.95363156  0.57971588    -0.74400
O1518       O  0.37577030  0.80828610  0.58123628    -0.73900
O1519       O  0.52021431  0.95346790  0.58000158    -0.74600
O1520       O  0.43256429  0.80859682  0.57966462    -0.74200
O1521       O  0.37564072  0.89681192  0.58140237    -0.74800
O1522       O  0.40353192  0.84091140  0.66607814    -0.74200
O1523       O  0.48783829  0.97516812  0.63580841    -0.74900
O1524       O  0.35950665  0.84374523  0.63901488    -0.74300
O1525       O  0.44450407  0.93325486  0.66511985    -0.74800
O1526       O  0.49436021  0.89227650  0.66168650    -0.74700
O1527       O  0.48334485  0.83997633  0.63857096    -0.74500
C1528       C  0.53689801  0.93324324  0.57509609     0.77300
C1529       C  0.39566556  0.93317678  0.57448704     0.77800
C1530       C  0.39604828  0.79251750  0.57412795     0.76800
C1531       C  0.36953994  0.83543748  0.66220365     0.77100
C1532       C  0.47231333  0.96721825  0.65963203     0.78300
C1533       C  0.49373949  0.85977690  0.66076383     0.77300
C1534       C  0.56107995  0.77826324  0.79223701     0.45600
H1535       H  0.56109137  0.77552592  0.81508880    -0.03400
C1536       C  0.56065014  0.78497052  0.73934626     0.45700
H1537       H  0.56084451  0.78799252  0.71648813    -0.03400
C1538       C  0.60190299  0.79777708  0.77975505    -0.17100
C1539       C  0.53825246  0.73862179  0.77749174    -0.16800
C1540       C  0.54231185  0.80244330  0.78215028    -0.17200
C1541       C  0.60144719  0.80199588  0.75178148    -0.17200
C1542       C  0.53830365  0.74225752  0.74931501    -0.16800
C1543       C  0.54122635  0.80518746  0.75395058    -0.17100
Zn1544     Zn  0.39345448  0.86544746  0.92824045     1.49700
Zn1545     Zn  0.47508665  0.86454672  0.93058728     1.49400
Zn1546     Zn  0.44878894  0.89041515  0.88139760     1.49100
Zn1547     Zn  0.47483057  0.94739256  0.92740178     1.49500
O1548       O  0.44806984  0.89210855  0.92018884    -1.84000
O1549       O  0.38073955  0.81591299  0.95026948    -0.74600
O1550       O  0.49105564  0.84657231  0.89617306    -0.74400
O1551       O  0.40620279  0.89466684  0.86475434    -0.73900
O1552       O  0.43733143  0.81579772  0.95242721    -0.74600
O1553       O  0.36272924  0.84927325  0.89219773    -0.74200
O1554       O  0.44499283  0.84177740  0.86767038    -0.74800
O1555       O  0.48575325  0.97603628  0.89006601    -0.74200
O1556       O  0.52426376  0.90282398  0.95147731    -0.74900
O1557       O  0.49494607  0.93459209  0.86546968    -0.74300
O1558       O  0.52561581  0.96067058  0.94812784    -0.74800
O1559       O  0.43771773  0.95956460  0.94913794    -0.74700
O1560       O  0.38118709  0.90296255  0.94885248    -0.74500
C1561       C  0.40096082  0.79996146  0.95771966     0.77300
C1562       C  0.47323949  0.83617110  0.87304618     0.77800
C1563       C  0.37243331  0.86633524  0.86866022     0.76800
C1564       C  0.49381486  0.96624105  0.86712141     0.77100
C1565       C  0.54088525  0.93980980  0.95599425     0.78300
C1566       C  0.40156925  0.93919220  0.95533686     0.77300
Zn1567     Zn  0.60493880  0.80334546  0.43190318     1.49700
Zn1568     Zn  0.52388403  0.71964527  0.42925903     1.49400
Zn1569     Zn  0.52282300  0.80236976  0.43033849     1.49100
Zn1570     Zn  0.55337321  0.77783926  0.38356758     1.49500
O1571       O  0.55072998  0.77525249  0.42214151    -1.84000
O1572       O  0.61758950  0.76560002  0.45247026    -0.74600
O1573       O  0.47295644  0.70624267  0.44963731    -0.74400
O1574       O  0.55968200  0.85259804  0.45164861    -0.73900
O1575       O  0.56180197  0.70810740  0.45136575    -0.74600
O1576       O  0.61561444  0.85124210  0.45365695    -0.74200
O1577       O  0.47371631  0.76384494  0.45119877    -0.74800
O1578       O  0.55677654  0.82629882  0.36946432    -0.74200
O1579       O  0.51187533  0.69007562  0.39230591    -0.74900
O1580       O  0.50613557  0.81665655  0.39387613    -0.74300
O1581       O  0.50831700  0.73450139  0.36571305    -0.74800
O1582       O  0.59867596  0.77633054  0.36985834    -0.74700
O1583       O  0.63856548  0.82314348  0.39766015    -0.74500
C1584       C  0.59779687  0.72887544  0.45813007     0.77300
C1585       C  0.45736120  0.72691655  0.45649936     0.77800
C1586       C  0.59553907  0.86780324  0.45888176     0.76800
C1587       C  0.52534064  0.82708747  0.37144466     0.77100
C1588       C  0.50454328  0.70069031  0.36896339     0.78300
C1589       C  0.63147391  0.80604685  0.37451831     0.77300
C1590       C  0.44419395  0.88728352  0.29169191     0.45600
H1591       H  0.44682787  0.88791347  0.31457532    -0.03400
C1592       C  0.43841374  0.88564163  0.23878631     0.45700
H1593       H  0.43616319  0.88500865  0.21590038    -0.03400
C1594       C  0.40219869  0.86352004  0.28151623    -0.17100
C1595       C  0.46050188  0.92811464  0.27859408    -0.16800
C1596       C  0.46571588  0.86873682  0.27799757    -0.17200
C1597       C  0.39905690  0.86253840  0.25333064    -0.17200
C1598       C  0.45739809  0.92729544  0.25037877    -0.16800
C1599       C  0.46273372  0.86780772  0.24980158    -0.17100
Zn1600     Zn  0.53101210  0.72464074  0.09948525     1.49700
Zn1601     Zn  0.53108025  0.80850404  0.09897595     1.49400
Zn1602     Zn  0.55550978  0.77950216  0.14677710     1.49100
Zn1603     Zn  0.61277005  0.80652755  0.10134484     1.49500
O1604       O  0.55754431  0.77952794  0.10807532    -1.84000
O1605       O  0.48086399  0.71305795  0.07877031    -0.74600
O1606       O  0.51806224  0.82804425  0.13432563    -0.74400
O1607       O  0.55823497  0.73550181  0.16417055    -0.73900
O1608       O  0.48012350  0.77005624  0.07899342    -0.74600
O1609       O  0.51530354  0.69250384  0.13523267    -0.74200
O1610       O  0.50868057  0.77796471  0.16064541    -0.74800
O1611       O  0.64044114  0.81638322  0.13858234    -0.74200
O1612       O  0.56950281  0.85736050  0.07688254    -0.74900
O1613       O  0.59889557  0.82687097  0.16140088    -0.74300
O1614       O  0.62676410  0.85872591  0.08143355    -0.74800
O1615       O  0.62553561  0.76947010  0.07968129    -0.74700
O1616       O  0.56903390  0.71275254  0.07843554    -0.74500
C1617       C  0.46432545  0.73346170  0.07310762     0.77300
C1618       C  0.50783301  0.80963228  0.15733748     0.77800
C1619       C  0.53110991  0.70121163  0.15910102     0.76800
C1620       C  0.62976512  0.82483461  0.16093711     0.77100
C1621       C  0.60635437  0.87415617  0.07305940     0.78300
C1622       C  0.60541062  0.73324877  0.07294300     0.77300
Zn1623     Zn  0.64272463  0.94872198  0.99992426     1.49700
Zn1624     Zn  0.64307850  0.69756741  0.00033469     1.49400
Zn1625     Zn  0.33662178  0.66866546  0.05602483     1.49100
Zn1626     Zn  0.39012501  0.69646338  0.00080752     1.49500
O1627       O  0.33633968  0.66937158  0.01499541    -1.84000
O1628       O  0.59437355  0.93799211  0.97767436    -0.74600
O1629       O  0.62354346  0.71703877  0.03113068    -0.74400
O1630       O  0.64293065  0.94457596  0.06965136    -0.73900
O1631       O  0.59426715  0.99477778  0.97749056    -0.74600
O1632       O  0.62318149  0.90945520  0.03112687    -0.74200
O1633       O  0.64068193  0.69789245  0.06980268    -0.74800
O1634       O  0.42898275  0.71543140  0.03160387    -0.74200
O1635       O  0.34590599  0.74651626  0.97895823    -0.74900
O1636       O  0.39432720  0.69832092  0.07026964    -0.74300
O1637       O  0.40171528  0.74553670  0.97917874    -0.74800
O1638       O  0.40299019  0.99366831  0.97763858    -0.74700
O1639       O  0.34697652  0.93724324  0.97725714    -0.74500
C1640       C  0.57857298  0.95861769  0.97101578     0.77300
C1641       C  0.62428754  0.71507610  0.05728541     0.77800
C1642       C  0.62537989  0.91148340  0.05726535     0.76800
C1643       C  0.42710554  0.71475113  0.05771161     0.77100
C1644       C  0.38180562  0.76202482  0.97270541     0.78300
C1645       C  0.38283003  0.95773417  0.97073283     0.77300
Zn1646     Zn  0.66410458  0.99779463  0.55655870     1.49700
Zn1647     Zn  0.35647507  0.96995444  0.50173001     1.49400
Zn1648     Zn  0.60888237  0.97091111  0.50212275     1.49100
Zn1649     Zn  0.35699600  0.71859169  0.50094192     1.49500
O1650       O  0.66348818  0.99789196  0.51550277    -1.84000
O1651       O  0.36079808  0.96887176  0.57141721    -0.74600
O1652       O  0.65091340  0.92108256  0.47958814    -0.74400
O1653       O  0.57096037  0.95155251  0.53327493    -0.73900
O1654       O  0.37632676  0.94988050  0.53272372    -0.74600
O1655       O  0.60690366  0.96818414  0.57158660    -0.74200
O1656       O  0.59515749  0.92207525  0.48006371    -0.74800
O1657       O  0.65325874  0.73037473  0.47910427    -0.74200
O1658       O  0.40340027  0.67157791  0.47764484    -0.74900
O1659       O  0.59731176  0.67379439  0.47957605    -0.74300
O1660       O  0.40462757  0.72900841  0.47826383    -0.74800
O1661       O  0.37802122  0.75804542  0.53198621    -0.74700
O1662       O  0.35984133  0.72196646  0.57057826    -0.74500
C1663       C  0.37647745  0.95162480  0.55886500     0.77300
C1664       C  0.61480141  0.90563782  0.47356120     0.77800
C1665       C  0.57367370  0.95194243  0.55936686     0.76800
C1666       C  0.61717425  0.71001707  0.47296186     0.77100
C1667       C  0.41969737  0.70806425  0.47138684     0.78300
C1668       C  0.37699481  0.75547183  0.55818447     0.77300
C1669       C  0.36392759  0.84183275  0.23606601    -0.05900
C1670       C  0.36616891  0.81836844  0.21539244    -0.17100
C1671       C  0.34489167  0.81107805  0.19102731     0.11200
C1672       C  0.65048962  0.82878332  0.18720137    -0.05900
C1673       C  0.31435829  0.84657583  0.20934995    -0.17100
C1674       C  0.33557775  0.85365006  0.23385735     0.11300
S1675       S  0.35047908  0.78039942  0.16623651    -0.32100
S1676       S  0.32727725  0.88091506  0.25993843    -0.32100
H1677       H  0.36654453  0.90480209  0.26676257     0.29300
H1678       H  0.63934701  0.75833561  0.16088477     0.29300
H1679       H  0.38706301  0.80813648  0.21733559     0.19900
H1680       H  0.62479055  0.86015889  0.20637886     0.19900
C1681       C  0.47564851  0.96084970  0.23094650    -0.05900
C1682       C  0.51636367  0.98314991  0.23042323    -0.17100
C1683       C  0.53531049  0.67335696  0.20581950     0.11200
C1684       C  0.51371339  0.67365237  0.18237353    -0.05900
C1685       C  0.47310452  0.98507980  0.18507646    -0.17100
C1686       C  0.45393577  0.96293783  0.20832629     0.11300
S1687       S  0.58772751  0.69855870  0.20672077    -0.32100
S1688       S  0.40155606  0.93826944  0.20903635    -0.32100
H1689       H  0.39558170  0.94314861  0.18093473     0.29300
H1690       H  0.59155589  0.69252089  0.17868975     0.29300
H1691       H  0.53324971  0.98078822  0.24737565     0.19900
H1692       H  0.45620462  0.98714065  0.16802784     0.19900
C1693       C  0.49769933  0.82553371  0.18141422    -0.05900
C1694       C  0.47476128  0.79897732  0.20223810    -0.16500
C1695       C  0.46544520  0.81176594  0.22623509     0.11200
C1696       C  0.47962017  0.85233482  0.22987439    -0.05900
C1697       C  0.50385869  0.87898948  0.20967771    -0.17100
C1698       C  0.51349856  0.86627281  0.18582059     0.11300
S1699       S  0.43431335  0.77438138  0.25048666    -0.32100
S1700       S  0.54702164  0.90374110  0.16254161    -0.32100
H1701       H  0.57103039  0.88675823  0.16019228     0.29300
H1702       H  0.41554612  0.79439349  0.25948349     0.29300
H1703       H  0.46324349  0.76769205  0.19960012     0.19900
H1704       H  0.51467982  0.91017448  0.21224048     0.19900
C1705       C  0.49467955  0.67566254  0.34444457    -0.05900
C1706       C  0.46675517  0.67477664  0.32578306    -0.17100
C1707       C  0.45907695  0.98474731  0.30155223     0.11200
C1708       C  0.47768333  0.96255197  0.29693763    -0.05900
C1709       C  0.50617532  0.96509007  0.31566940    -0.17100
C1710       C  0.51488378  0.98733983  0.33966706     0.11300
S1711       S  0.42063749  0.65145746  0.27852928    -0.32100
S1712       S  0.55313196  0.99075276  0.36231907    -0.32100
H1713       H  0.56557907  0.96998052  0.34567159     0.29300
H1714       H  0.41277894  0.00724930  0.29282573     0.29300
H1715       H  0.45143925  0.69044381  0.33067674     0.19900
H1716       H  0.52015486  0.94775037  0.31213840     0.19900
C1717       C  0.37095979  0.84700639  0.30220378    -0.05900
C1718       C  0.37233282  0.87347499  0.32192554    -0.17100
C1719       C  0.35065144  0.86054416  0.34594904     0.11200
C1720       C  0.65931948  0.82174497  0.35163537    -0.05900
C1721       C  0.65698387  0.79527667  0.33142811    -0.17100
C1722       C  0.34598768  0.80636870  0.30621942     0.11300
S1723       S  0.35455284  0.89767345  0.36928593    -0.32100
S1724       S  0.34316892  0.77086179  0.28172509    -0.32100
H1725       H  0.31503934  0.73701263  0.29559570     0.29300
H1726       H  0.70214279  0.88648444  0.39173547     0.29300
H1727       H  0.39162762  0.90476095  0.31895230     0.19900
H1728       H  0.63820029  0.76403412  0.33483123     0.19900
C1729       C  0.50990031  0.83622639  0.34636968    -0.05900
C1730       C  0.53637752  0.86311293  0.32710552    -0.17100
C1731       C  0.52354163  0.87157514  0.30228243     0.11200
C1732       C  0.48342344  0.85157558  0.29613733    -0.05900
C1733       C  0.45745035  0.82242448  0.31432348    -0.17100
C1734       C  0.46998165  0.81473359  0.33945753     0.11300
S1735       S  0.55975234  0.90899705  0.28017310    -0.32100
S1736       S  0.43453862  0.77710860  0.36202501    -0.32100
H1737       H  0.40139193  0.76696026  0.34555175     0.29300
H1738       H  0.53585807  0.92150552  0.26711271     0.29300
H1739       H  0.56726757  0.87859394  0.33182767     0.19900
H1740       H  0.42659221  0.80774920  0.30966574     0.19900
C1741       C  0.63669961  0.81351022  0.79789257    -0.05900
C1742       C  0.66304238  0.85399255  0.79717787    -0.17100
C1743       C  0.68527626  0.87305650  0.82051243     0.11200
C1744       C  0.34678636  0.84960236  0.84458931    -0.05900
C1745       C  0.65935818  0.80983288  0.84388747    -0.17100
C1746       C  0.63733552  0.79108747  0.82068384     0.11300
S1747       S  0.37985435  0.92416294  0.81773281    -0.32100
S1748       S  0.61177156  0.73833073  0.82005915    -0.32100
H1749       H  0.61294534  0.73205222  0.84860512     0.29300
H1750       H  0.37047586  0.93041434  0.84437313     0.29300
H1751       H  0.66305303  0.87152599  0.77965914     0.19900
H1752       H  0.32282544  0.79148725  0.86216920     0.19900
C1753       C  0.51766233  0.70266420  0.79445581    -0.05900
C1754       C  0.49353551  0.70396984  0.81480848    -0.17100
C1755       C  0.48463850  0.68094506  0.83857335     0.11200
C1756       C  0.49871141  0.98945607  0.84159629    -0.05900
C1757       C  0.51722388  0.98397300  0.81876873    -0.17100
C1758       C  0.52905237  0.67374855  0.79629383     0.11300
S1759       S  0.45277223  0.68543124  0.86274081    -0.32100
S1760       S  0.55753852  0.66710837  0.77031706    -0.32100
H1761       H  0.58107868  0.70706067  0.76358596     0.29300
H1762       H  0.43054179  0.64484695  0.86812937     0.29300
H1763       H  0.48343164  0.72505416  0.81294824     0.19900
H1764       H  0.52735444  0.96281269  0.81999617     0.19900
C1765       C  0.48916879  0.82382547  0.85048184    -0.05900
C1766       C  0.52956096  0.84472252  0.84740626    -0.17100
C1767       C  0.54710826  0.84166140  0.82366148     0.11200
C1768       C  0.52417580  0.81589305  0.80253270    -0.05900
C1769       C  0.48358854  0.79508715  0.80531055    -0.17100
C1770       C  0.46582129  0.79863250  0.82911188     0.11300
S1771       S  0.59896272  0.87291546  0.82159270    -0.32100
S1772       S  0.41364202  0.76886309  0.83158538    -0.32100
H1773       H  0.41304056  0.76471553  0.86046744     0.29300
H1774       H  0.60174681  0.87104136  0.79294169     0.29300
H1775       H  0.54767277  0.86540553  0.86304806     0.19900
H1776       H  0.46586937  0.77424505  0.78963682     0.19900
C1777       C  0.34386986  0.82541623  0.68610593    -0.05900
C1778       C  0.66169163  0.85140886  0.69028652    -0.17100
C1779       C  0.64208856  0.84764110  0.71479884     0.11200
C1780       C  0.63472471  0.81656399  0.73313096    -0.05900
C1781       C  0.64982831  0.79166066  0.72775990    -0.17100
C1782       C  0.34065812  0.79811129  0.70684010     0.11300
S1783       S  0.62666932  0.88269735  0.72271925    -0.32100
S1784       S  0.36266956  0.76748571  0.70410272    -0.32100
H1785       H  0.35877389  0.76386388  0.67528289     0.29300
H1786       H  0.63579910  0.90237404  0.69706335     0.29300
H1787       H  0.66774634  0.87556245  0.67625541     0.19900
H1788       H  0.64331028  0.76714948  0.74157848     0.19900
C1789       C  0.48835935  0.99600928  0.68214546    -0.05900
C1790       C  0.46308738  0.99545834  0.70260098    -0.17100
C1791       C  0.47986852  0.68707463  0.72530804     0.11200
C1792       C  0.52043129  0.71076526  0.72861514    -0.05900
C1793       C  0.54534071  0.71044953  0.70843512    -0.17100
C1794       C  0.53097774  0.68726350  0.68494507     0.11300
S1795       S  0.44657889  0.68790995  0.75012039    -0.32100
S1796       S  0.56520906  0.68626912  0.66098019    -0.32100
H1797       H  0.59949324  0.71238830  0.67507498     0.29300
H1798       H  0.41203942  0.66320089  0.73572038     0.29300
H1799       H  0.43207272  0.97584159  0.70037333     0.19900
H1800       H  0.57643513  0.72906964  0.71104381     0.19900
C1801       C  0.50165637  0.84446080  0.68662798    -0.05900
C1802       C  0.52275138  0.87136795  0.70768216    -0.17100
C1803       C  0.53107899  0.85886228  0.73283664     0.11200
C1804       C  0.51895236  0.81877828  0.73671978    -0.05900
C1805       C  0.49399329  0.79173781  0.71717130    -0.17100
C1806       C  0.48526525  0.80386175  0.69229697     0.11300
S1807       S  0.55795140  0.89433184  0.75915439    -0.32100
S1808       S  0.45359641  0.76572760  0.66892235    -0.32100
H1809       H  0.42982012  0.78245405  0.66338374     0.29300
H1810       H  0.56278256  0.92779261  0.74456002     0.29300
H1811       H  0.53349106  0.90243353  0.70420648     0.19900
H1812       H  0.48369195  0.76079301  0.72030690     0.19900
Zn1813     Zn  0.80327921  0.19199649  0.60184249     1.49700
Zn1814     Zn  0.80432965  0.27611085  0.60071693     1.49400
Zn1815     Zn  0.72177346  0.19295272  0.60162215     1.49100
Zn1816     Zn  0.77782181  0.22237309  0.64860477     1.49500
O1817       O  0.77654697  0.22085160  0.60980802    -1.84000
O1818       O  0.85429757  0.23014810  0.58176129    -0.74600
O1819       O  0.76589516  0.28815605  0.57962813    -0.74400
O1820       O  0.70892328  0.14224234  0.58083295    -0.73900
O1821       O  0.85342247  0.28700740  0.57945508    -0.74600
O1822       O  0.76567472  0.14245068  0.57983026    -0.74200
O1823       O  0.70954000  0.23102157  0.58014418    -0.74800
O1824       O  0.73480389  0.17519029  0.66522654    -0.74200
O1825       O  0.82226911  0.30915951  0.63592127    -0.74900
O1826       O  0.69145936  0.17846690  0.63769288    -0.74300
O1827       O  0.77701270  0.26790639  0.66437946    -0.74800
O1828       O  0.82551144  0.22546954  0.66215324    -0.74700
O1829       O  0.81568930  0.17386373  0.63855922    -0.74500
C1830       C  0.86983808  0.26649492  0.57463945     0.77300
C1831       C  0.72958045  0.26755305  0.57375299     0.77800
C1832       C  0.72924080  0.12635342  0.57410987     0.76800
C1833       C  0.70096000  0.16990326  0.66096808     0.77100
C1834       C  0.80613134  0.30131701  0.65954840     0.78300
C1835       C  0.82535829  0.19321380  0.66093403     0.77300
C1836       C  0.89134817  0.11020998  0.79230150     0.45600
H1837       H  0.89125174  0.10792301  0.81518155    -0.03400
C1838       C  0.89136433  0.11624117  0.73936023     0.45700
H1839       H  0.89178293  0.11910279  0.71648861    -0.03400
C1840       C  0.93215582  0.12841924  0.77997177    -0.17100
C1841       C  0.86766668  0.07045950  0.77784281    -0.16800
C1842       C  0.87376802  0.13524076  0.78180967    -0.17200
C1843       C  0.93202292  0.13228841  0.75192652    -0.17200
C1844       C  0.86789713  0.07370016  0.74961350    -0.16800
C1845       C  0.87287298  0.13765224  0.75361687    -0.17100
Zn1846     Zn  0.72627206  0.19839690  0.92841058     1.49700
Zn1847     Zn  0.80851860  0.19780477  0.93073871     1.49400
Zn1848     Zn  0.78194015  0.22425594  0.88238548     1.49100
Zn1849     Zn  0.80786260  0.28021727  0.92916170     1.49500
O1850       O  0.78103400  0.22522830  0.92114425    -1.84000
O1851       O  0.71391552  0.14874060  0.95009039    -0.74600
O1852       O  0.82481056  0.18109147  0.89582870    -0.74400
O1853       O  0.73980070  0.22909204  0.86522792    -0.73900
O1854       O  0.77052008  0.14847911  0.95188778    -0.74600
O1855       O  0.69630816  0.18243256  0.89187257    -0.74200
O1856       O  0.77789991  0.17583891  0.86807821    -0.74800
O1857       O  0.81934166  0.30957175  0.89222676    -0.74200
O1858       O  0.85785978  0.23552713  0.95194651    -0.74900
O1859       O  0.82905439  0.26837304  0.86778975    -0.74300
O1860       O  0.85869866  0.29316088  0.94981426    -0.74800
O1861       O  0.77026344  0.29189667  0.95068010    -0.74700
O1862       O  0.71339931  0.23567248  0.94910351    -0.74500
C1863       C  0.73414706  0.13264985  0.95721801     0.77300
C1864       C  0.80659335  0.17076527  0.87285471     0.77800
C1865       C  0.70620040  0.20012659  0.86854114     0.76800
C1866       C  0.82786087  0.29997793  0.86939436     0.77100
C1867       C  0.87433418  0.27236787  0.95699552     0.78300
C1868       C  0.73384697  0.27169336  0.95615861     0.77300
Zn1869     Zn  0.93838273  0.13621117  0.43030049     1.49700
Zn1870     Zn  0.85712535  0.05314789  0.42799737     1.49400
Zn1871     Zn  0.85632569  0.13596668  0.42846100     1.49100
Zn1872     Zn  0.88669760  0.11121395  0.38153140     1.49500
O1873       O  0.88422140  0.10870354  0.42028143    -1.84000
O1874       O  0.95054311  0.09874597  0.45179034    -0.74600
O1875       O  0.80635445  0.04006456  0.44859606    -0.74400
O1876       O  0.89332034  0.18580832  0.45010504    -0.73900
O1877       O  0.89476241  0.04136848  0.45050359    -0.74600
O1878       O  0.94935860  0.18461732  0.45169795    -0.74200
O1879       O  0.80701260  0.09761164  0.44960711    -0.74800
O1880       O  0.89003122  0.15953295  0.36686862    -0.74200
O1881       O  0.84491206  0.02347059  0.39110095    -0.74900
O1882       O  0.84023810  0.15113979  0.39187179    -0.74300
O1883       O  0.84123540  0.06769877  0.36429413    -0.74800
O1884       O  0.93171981  0.10935388  0.36733338    -0.74700
O1885       O  0.97226500  0.15427454  0.39612360    -0.74500
C1886       C  0.93062858  0.06210437  0.45762038     0.77300
C1887       C  0.79078868  0.06079739  0.45536992     0.77800
C1888       C  0.92920586  0.20099901  0.45726528     0.76800
C1889       C  0.85923445  0.16144532  0.36931260     0.77100
C1890       C  0.83754993  0.03394445  0.36770241     0.78300
C1891       C  0.96511806  0.13772582  0.37274463     0.77300
C1892       C  0.77788532  0.22477565  0.29119849     0.45600
H1893       H  0.78124088  0.22574794  0.31403760    -0.03400
C1894       C  0.77060048  0.22251532  0.23838380     0.45700
H1895       H  0.76761800  0.22170345  0.21553617    -0.03400
C1896       C  0.73563466  0.20045910  0.28160397    -0.17100
C1897       C  0.79323228  0.26533489  0.27791933    -0.16800
C1898       C  0.79955266  0.20659346  0.27713556    -0.17200
C1899       C  0.73174550  0.19918345  0.25342915    -0.17200
C1900       C  0.78939311  0.26417411  0.24981423    -0.16800
C1901       C  0.79564680  0.20519848  0.24891507    -0.17100
Zn1902     Zn  0.86416326  0.05770520  0.09984186     1.49700
Zn1903     Zn  0.86520516  0.14195653  0.09908881     1.49400
Zn1904     Zn  0.88945115  0.11293493  0.14776097     1.49100
Zn1905     Zn  0.94662866  0.13890401  0.10191456     1.49500
O1906       O  0.89127976  0.11268646  0.10894636    -1.84000
O1907       O  0.81472980  0.04668513  0.07836611    -0.74600
O1908       O  0.85167382  0.16229738  0.13391642    -0.74400
O1909       O  0.88924597  0.06731880  0.16488369    -0.73900
O1910       O  0.81438594  0.10383962  0.07857200    -0.74600
O1911       O  0.84686139  0.02504563  0.13523831    -0.74200
O1912       O  0.84432907  0.11453895  0.16202651    -0.74800
O1913       O  0.97514846  0.14853529  0.13891655    -0.74200
O1914       O  0.90421289  0.19040890  0.07696734    -0.74900
O1915       O  0.93426208  0.15862953  0.16294079    -0.74300
O1916       O  0.96116660  0.19111517  0.08151200    -0.74800
O1917       O  0.95872293  0.10127061  0.08046160    -0.74700
O1918       O  0.90200219  0.04486016  0.07933480    -0.74500
C1919       C  0.79848588  0.06729302  0.07250135     0.77300
C1920       C  0.84222428  0.14534727  0.15747612     0.77800
C1921       C  0.86212979  0.03322914  0.15926831     0.76800
C1922       C  0.96519119  0.15679017  0.16165983     0.77100
C1923       C  0.94100703  0.20680569  0.07303543     0.78300
C1924       C  0.93841827  0.06502310  0.07389213     0.77300
Zn1925     Zn  0.97736228  0.28178229  0.99988787     1.49700
Zn1926     Zn  0.97572142  0.02984502  0.00092823     1.49400
Zn1927     Zn  0.67070472  0.00272863  0.05547345     1.49100
Zn1928     Zn  0.72353568  0.02934709  0.00027134     1.49500
O1929       O  0.66972994  0.00274979  0.01444869    -1.84000
O1930       O  0.92830523  0.27061523  0.97815146    -0.74600
O1931       O  0.95582175  0.04835922  0.03202238    -0.74400
O1932       O  0.97675769  0.27724750  0.06958374    -0.73900
O1933       O  0.92834852  0.32747850  0.97792662    -0.74600
O1934       O  0.95869581  0.24215994  0.03102797    -0.74200
O1935       O  0.97419669  0.03009641  0.07052864    -0.74800
O1936       O  0.76300187  0.04904090  0.03089238    -0.74200
O1937       O  0.67925995  0.07949841  0.97866715    -0.74900
O1938       O  0.72849412  0.03239655  0.06957872    -0.74300
O1939       O  0.73482419  0.07794676  0.97820187    -0.74800
O1940       O  0.73523400  0.32633078  0.97813189    -0.74700
O1941       O  0.67911586  0.27010139  0.97782502    -0.74500
C1942       C  0.91237823  0.29120450  0.97167391     0.77300
C1943       C  0.95710498  0.04670096  0.05816395     0.77800
C1944       C  0.96018133  0.24414118  0.05718793     0.76800
C1945       C  0.76125341  0.04867712  0.05701081     0.77100
C1946       C  0.71500703  0.09466080  0.97205957     0.78300
C1947       C  0.71500572  0.29036548  0.97134752     0.77300
Zn1948     Zn  0.99701411  0.33034806  0.55632657     1.49700
Zn1949     Zn  0.69044360  0.30398849  0.50094766     1.49400
Zn1950     Zn  0.94195880  0.30331862  0.50158581     1.49100
Zn1951     Zn  0.69101378  0.05242802  0.50104001     1.49500
O1952       O  0.99642667  0.33023676  0.51528643    -1.84000
O1953       O  0.69440406  0.30278113  0.57061091    -0.74600
O1954       O  0.98429319  0.25374732  0.47873501    -0.74400
O1955       O  0.90384596  0.28404802  0.53273009    -0.73900
O1956       O  0.71062877  0.28439521  0.53193860    -0.74600
O1957       O  0.93976110  0.30098344  0.57109055    -0.74200
O1958       O  0.92854284  0.25474064  0.47914169    -0.74800
O1959       O  0.98579885  0.06362594  0.47934196    -0.74200
O1960       O  0.73712584  0.00565091  0.47714732    -0.74900
O1961       O  0.92967702  0.00720623  0.47984431    -0.74300
O1962       O  0.73849157  0.06311305  0.47787100    -0.74800
O1963       O  0.71190436  0.09177009  0.53208354    -0.74700
O1964       O  0.69308707  0.05579226  0.57070762    -0.74500
C1965       C  0.71052842  0.28598991  0.55807405     0.77300
C1966       C  0.94828856  0.23848325  0.47242636     0.77800
C1967       C  0.90655317  0.28475586  0.55884363     0.76800
C1968       C  0.94973566  0.04333244  0.47301407     0.77100
C1969       C  0.75338906  0.04210956  0.47073885     0.78300
C1970       C  0.71043402  0.08925494  0.55827188     0.77300
C1971       C  0.69643170  0.17783728  0.23642223    -0.05900
C1972       C  0.69880847  0.15401301  0.21608010    -0.17100
C1973       C  0.67777276  0.14634697  0.19157512     0.11200
C1974       C  0.98712955  0.16125791  0.18746682    -0.05900
C1975       C  0.64716255  0.18225653  0.20904159    -0.17100
C1976       C  0.66826804  0.18982893  0.23366008     0.11300
S1977       S  0.68391084  0.11557538  0.16717598    -0.32100
S1978       S  0.65941603  0.21705539  0.25946958    -0.32100
H1979       H  0.69827461  0.23987624  0.26759384     0.29300
H1980       H  0.97476020  0.09035917  0.16160964     0.29300
H1981       H  0.71976028  0.14389296  0.21834317     0.19900
H1982       H  0.96163887  0.19223178  0.20746643     0.19900
C1983       C  0.80805014  0.29739038  0.23030893    -0.05900
C1984       C  0.84877167  0.31764999  0.22917643    -0.17100
C1985       C  0.86643065  0.00338427  0.20487809     0.11200
C1986       C  0.84452817  0.00514767  0.18214558    -0.05900
C1987       C  0.80558183  0.32033578  0.18403985    -0.17100
C1988       C  0.78638898  0.29981245  0.20780614     0.11300
S1989       S  0.91877632  0.02638861  0.20461057    -0.32100
S1990       S  0.73411812  0.27707905  0.20927456    -0.32100
H1991       H  0.72778780  0.28170108  0.18119611     0.29300
H1992       H  0.92139604  0.02204439  0.17611341     0.29300
H1993       H  0.86548158  0.31475070  0.24604162     0.19900
H1994       H  0.78887481  0.32289206  0.16704599     0.19900
C1995       C  0.83105880  0.16177682  0.18081215    -0.05900
C1996       C  0.81079083  0.13632334  0.20292955    -0.16500
C1997       C  0.80090848  0.14961755  0.22641984     0.11200
C1998       C  0.81221165  0.18980236  0.22850097    -0.05900
C1999       C  0.83345141  0.21547929  0.20682772    -0.17100
C2000       C  0.84315805  0.20220014  0.18324711     0.11300
S2001       S  0.77206315  0.11300368  0.25180572    -0.32100
S2002       S  0.87170284  0.23871562  0.15762895    -0.32100
H2003       H  0.89986909  0.22673006  0.15617531     0.29300
H2004       H  0.74992035  0.13052726  0.25858206     0.29300
H2005       H  0.80163069  0.10530313  0.20170928     0.19900
H2006       H  0.84190697  0.24631220  0.20802576     0.19900
C2007       C  0.82769929  0.00874657  0.34330257    -0.05900
C2008       C  0.79987931  0.00780778  0.32452753    -0.17100
C2009       C  0.79135779  0.32115462  0.30154083     0.11200
C2010       C  0.81080859  0.30006511  0.29586226    -0.05900
C2011       C  0.84085029  0.30376326  0.31342927    -0.17100
C2012       C  0.85013833  0.32579027  0.33752550     0.11300
S2013       S  0.75341705  0.98372070  0.27748829    -0.32100
S2014       S  0.89015841  0.33069417  0.35884978    -0.32100
H2015       H  0.90210590  0.30997774  0.34171344     0.29300
H2016       H  0.74430969  0.34302194  0.29425888     0.29300
H2017       H  0.78485922  0.02386548  0.32914296     0.19900
H2018       H  0.85551733  0.28733504  0.30899698     0.19900
C2019       C  0.70498213  0.18363283  0.30275635    -0.05900
C2020       C  0.70665460  0.20977539  0.32291204    -0.17100
C2021       C  0.68505352  0.19643883  0.34710893     0.11200
C2022       C  0.99397268  0.15287904  0.35045084    -0.05900
C2023       C  0.99161170  0.12653126  0.33010694    -0.17100
C2024       C  0.68043517  0.14294162  0.30666193     0.11300
S2025       S  0.68833320  0.23217174  0.37180581    -0.32100
S2026       S  0.67800014  0.10781524  0.28197720    -0.32100
H2027       H  0.65171143  0.07361341  0.29645075     0.29300
H2028       H  0.03736719  0.21645169  0.39157148     0.29300
H2029       H  0.72591529  0.24097989  0.31984649     0.19900
H2030       H  0.97166519  0.09540204  0.33291615     0.19900
C2031       C  0.84409027  0.17182426  0.34459004    -0.05900
C2032       C  0.87055852  0.20005106  0.32595959    -0.17100
C2033       C  0.85777981  0.20957205  0.30145953     0.11200
C2034       C  0.81765685  0.18951943  0.29510777    -0.05900
C2035       C  0.79174845  0.15950999  0.31283115    -0.17100
C2036       C  0.80433456  0.15029403  0.33736276     0.11300
S2037       S  0.89418158  0.24838797  0.28022870    -0.32100
S2038       S  0.76927780  0.11031192  0.35864844    -0.32100
H2039       H  0.73629244  0.10017465  0.34199742     0.29300
H2040       H  0.86958274  0.25544155  0.26298004     0.29300
H2041       H  0.90137105  0.21555621  0.33089862     0.19900
H2042       H  0.76091003  0.14486610  0.30817904     0.19900
C2043       C  0.96665334  0.14391671  0.79838010    -0.05900
C2044       C  0.99345504  0.18422962  0.79735882    -0.17100
C2045       C  0.01574315  0.20351459  0.82058260     0.11200
C2046       C  0.68089061  0.18367707  0.84415831    -0.05900
C2047       C  0.98869119  0.14076406  0.84473743    -0.17100
C2048       C  0.96658780  0.12174285  0.82158714     0.11300
S2049       S  0.71449721  0.25855535  0.81764378    -0.32100
S2050       S  0.94005930  0.06893596  0.82147387    -0.32100
H2051       H  0.94592954  0.06265893  0.84933211     0.29300
H2052       H  0.70548709  0.26501627  0.84434216     0.29300
H2053       H  0.99394200  0.20157488  0.77959076     0.19900
H2054       H  0.65674504  0.12524829  0.86122236     0.19900
C2055       C  0.84724390  0.03484382  0.79517959    -0.05900
C2056       C  0.82482927  0.03733583  0.81637114    -0.17100
C2057       C  0.81755179  0.01534010  0.84053135     0.11200
C2058       C  0.83301262  0.32314230  0.84385324    -0.05900
C2059       C  0.85072536  0.31665456  0.82097263    -0.17100
C2060       C  0.85796312  0.00541397  0.79659926     0.11300
S2061       S  0.78901402  0.02238827  0.86619703    -0.32100
S2062       S  0.88501855  0.99782517  0.77002485    -0.32100
H2063       H  0.91020538  0.03781880  0.76424362     0.29300
H2064       H  0.76437641  0.98192439  0.87096285     0.29300
H2065       H  0.81529672  0.05887183  0.81493655     0.19900
H2066       H  0.86026611  0.29504263  0.82228043     0.19900
C2067       C  0.82225630  0.15886766  0.84989083    -0.05900
C2068       C  0.86246911  0.18059753  0.84596150    -0.17100
C2069       C  0.87949839  0.17665283  0.82222820     0.11200
C2070       C  0.85610488  0.14962277  0.80183919    -0.05900
C2071       C  0.81564147  0.12843656  0.80529380    -0.17100
C2072       C  0.79846280  0.13253234  0.82920044     0.11300
S2073       S  0.93130896  0.20799376  0.81940188    -0.32100
S2074       S  0.74654139  0.10177619  0.83280740    -0.32100
H2075       H  0.74723577  0.09854831  0.86171242     0.29300
H2076       H  0.93397507  0.20316151  0.79110880     0.29300
H2077       H  0.88081219  0.20215389  0.86107528     0.19900
H2078       H  0.79764402  0.10670234  0.79017695     0.19900
C2079       C  0.67499173  0.15970723  0.68463157    -0.05900
C2080       C  0.99530042  0.18477139  0.69200332    -0.17100
C2081       C  0.97451361  0.17955563  0.71618170     0.11200
C2082       C  0.96560085  0.14699923  0.73343728    -0.05900
C2083       C  0.98033240  0.12195095  0.72738325    -0.17100
C2084       C  0.66994177  0.13049873  0.70428232     0.11300
S2085       S  0.95961045  0.21469357  0.72506500    -0.32100
S2086       S  0.68796412  0.09676213  0.69938009    -0.32100
H2087       H  0.68554449  0.09665058  0.67042977     0.29300
H2088       H  0.97572206  0.23980860  0.70209512     0.29300
H2089       H  0.00229948  0.20988339  0.67869995     0.19900
H2090       H  0.97276221  0.09640110  0.74037829     0.19900
C2091       C  0.82271544  0.32928518  0.68260865    -0.05900
C2092       C  0.79762118  0.32868893  0.70324139    -0.17100
C2093       C  0.80935962  0.01712201  0.72637336     0.11200
C2094       C  0.84988994  0.04196226  0.72908807    -0.05900
C2095       C  0.87467988  0.04179576  0.70876892    -0.17100
C2096       C  0.86034748  0.01767276  0.68588522     0.11300
S2097       S  0.77611075  0.01794096  0.75121060    -0.32100
S2098       S  0.89587293  0.01792959  0.66278739    -0.32100
H2099       H  0.87804515  0.97668436  0.66175930     0.29300
H2100       H  0.74168679  0.98814621  0.73927648     0.29300
H2101       H  0.76652139  0.30977962  0.70079946     0.19900
H2102       H  0.90583070  0.06085226  0.71077367     0.19900
C2103       C  0.83329938  0.17767877  0.68660931    -0.05900
C2104       C  0.85481989  0.20446808  0.70755776    -0.17100
C2105       C  0.86333237  0.19181065  0.73252820     0.11200
C2106       C  0.85106932  0.15164179  0.73625943    -0.05900
C2107       C  0.82569654  0.12467700  0.71682283    -0.17100
C2108       C  0.81656253  0.13702539  0.69219836     0.11300
S2109       S  0.89018109  0.22725943  0.75883859    -0.32100
S2110       S  0.78359169  0.09919137  0.66912995    -0.32100
H2111       H  0.76092852  0.11718518  0.66364433     0.29300
H2112       H  0.89732385  0.26107163  0.74364347     0.29300
H2113       H  0.86562012  0.23556531  0.70416152     0.19900
H2114       H  0.81502587  0.09359616  0.71997567     0.19900
Zn2115     Zn  0.80433010  0.52584825  0.60209668     1.49700
Zn2116     Zn  0.80475268  0.60953565  0.60066342     1.49400
Zn2117     Zn  0.72232561  0.52653081  0.60229467     1.49100
Zn2118     Zn  0.77850530  0.55577018  0.64878567     1.49500
O2119       O  0.77727250  0.55435673  0.61000261    -1.84000
O2120       O  0.85538356  0.56420558  0.58196358    -0.74600
O2121       O  0.76622360  0.62137084  0.57941124    -0.74400
O2122       O  0.70950040  0.47564379  0.58176343    -0.73900
O2123       O  0.85407951  0.62082372  0.57958681    -0.74600
O2124       O  0.76644485  0.47619863  0.58022409    -0.74200
O2125       O  0.70986912  0.56428899  0.58049063    -0.74800
O2126       O  0.73566420  0.50859922  0.66560792    -0.74200
O2127       O  0.82247480  0.64241872  0.63582998    -0.74900
O2128       O  0.69235182  0.51277788  0.63865548    -0.74300
O2129       O  0.77693869  0.60103268  0.66408552    -0.74800
O2130       O  0.82635651  0.55938090  0.66261968    -0.74700
O2131       O  0.81724366  0.50814486  0.63885885    -0.74500
C2132       C  0.87077857  0.60056148  0.57486861     0.77300
C2133       C  0.72984587  0.60069557  0.57373066     0.77800
C2134       C  0.72989321  0.45993010  0.57479672     0.76800
C2135       C  0.70200716  0.50403572  0.66181187     0.77100
C2136       C  0.80615909  0.63439945  0.65938805     0.78300
C2137       C  0.82683029  0.52744572  0.66126610     0.77300
C2138       C  0.89300868  0.44508683  0.79308494     0.45600
H2139       H  0.89267967  0.44268750  0.81596076    -0.03400
C2140       C  0.89362345  0.45142371  0.74016553     0.45700
H2141       H  0.89428657  0.45439394  0.71729718    -0.03400
C2142       C  0.93399324  0.46372065  0.78096194    -0.17100
C2143       C  0.86977549  0.40536648  0.77850950    -0.16800
C2144       C  0.87512500  0.46981597  0.78253233    -0.17200
C2145       C  0.93417041  0.46781676  0.75293290    -0.17200
C2146       C  0.87042554  0.40878494  0.75026534    -0.16800
C2147       C  0.87455950  0.47237530  0.75431383    -0.17100
Zn2148     Zn  0.72733850  0.53237556  0.92944007     1.49700
Zn2149     Zn  0.80920144  0.53160941  0.93159658     1.49400
Zn2150     Zn  0.78279629  0.55815215  0.88317266     1.49100
Zn2151     Zn  0.80863901  0.61424632  0.92962513     1.49500
O2152       O  0.78195859  0.55918129  0.92192381    -1.84000
O2153       O  0.71480442  0.48270235  0.95115486    -0.74600
O2154       O  0.82520057  0.51459887  0.89665921    -0.74400
O2155       O  0.74074122  0.56341450  0.86632330    -0.73900
O2156       O  0.77137688  0.48244094  0.95305114    -0.74600
O2157       O  0.69732041  0.51687489  0.89308670    -0.74200
O2158       O  0.77836426  0.50951178  0.86888765    -0.74800
O2159       O  0.82054183  0.64352262  0.89259598    -0.74200
O2160       O  0.85844092  0.56957008  0.95265125    -0.74900
O2161       O  0.82997800  0.60201881  0.86830193    -0.74300
O2162       O  0.85911900  0.62715459  0.95047775    -0.74800
O2163       O  0.77096015  0.62600577  0.95094781    -0.74700
O2164       O  0.71440187  0.56944196  0.94998362    -0.74500
C2165       C  0.73500376  0.46662173  0.95837499     0.77300
C2166       C  0.80700687  0.50433700  0.87366027     0.77800
C2167       C  0.70707504  0.53463111  0.86977360     0.76800
C2168       C  0.82904009  0.63376756  0.86981537     0.77100
C2169       C  0.87474095  0.60639086  0.95772324     0.78300
C2170       C  0.73463783  0.60559982  0.95666218     0.77300
Zn2171     Zn  0.93997433  0.47100151  0.43189189     1.49700
Zn2172     Zn  0.85835073  0.38797892  0.42908324     1.49400
Zn2173     Zn  0.85785345  0.47063834  0.42970700     1.49100
Zn2174     Zn  0.88919110  0.44658416  0.38325181     1.49500
O2175       O  0.88585027  0.44347845  0.42186293    -1.84000
O2176       O  0.95170706  0.43288088  0.45285070    -0.74600
O2177       O  0.80785219  0.37490696  0.44979027    -0.74400
O2178       O  0.89493812  0.52092968  0.45083436    -0.73900
O2179       O  0.89581550  0.37557365  0.45094863    -0.74600
O2180       O  0.95072998  0.51926512  0.45332385    -0.74200
O2181       O  0.80852595  0.43244822  0.45090986    -0.74800
O2182       O  0.89363431  0.49570160  0.36945573    -0.74200
O2183       O  0.84547325  0.35871641  0.39214591    -0.74900
O2184       O  0.84163253  0.48452165  0.39279406    -0.74300
O2185       O  0.84378495  0.40391725  0.36519180    -0.74800
O2186       O  0.93408465  0.44413172  0.36950777    -0.74700
O2187       O  0.97427968  0.48985953  0.39787074    -0.74500
C2188       C  0.93166357  0.39606157  0.45812946     0.77300
C2189       C  0.79227208  0.39559952  0.45656958     0.77800
C2190       C  0.93069970  0.53597737  0.45829689     0.76800
C2191       C  0.86163502  0.49548470  0.37069798     0.77100
C2192       C  0.83879724  0.36966608  0.36871171     0.78300
C2193       C  0.96728540  0.47298347  0.37463357     0.77300
C2194       C  0.77938621  0.55386371  0.29152823     0.45600
H2195       H  0.78241321  0.55445023  0.31438577    -0.03400
C2196       C  0.77264797  0.55230507  0.23863233     0.45700
H2197       H  0.77005663  0.55179963  0.21576340    -0.03400
C2198       C  0.73720684  0.52992017  0.28165042    -0.17100
C2199       C  0.79518856  0.59467878  0.27847602    -0.16800
C2200       C  0.80093195  0.53564910  0.27739410    -0.17200
C2201       C  0.73353624  0.52914572  0.25346507    -0.17200
C2202       C  0.79172400  0.59387973  0.25031348    -0.16800
C2203       C  0.79718429  0.53450629  0.24924385    -0.17100
Zn2204     Zn  0.86512993  0.39022174  0.09946575     1.49700
Zn2205     Zn  0.86539153  0.47391486  0.09908438     1.49400
Zn2206     Zn  0.88989317  0.44475166  0.14714099     1.49100
Zn2207     Zn  0.94730089  0.47229721  0.10188871     1.49500
O2208       O  0.89198988  0.44517309  0.10840918    -1.84000
O2209       O  0.81531468  0.37880801  0.07822247    -0.74600
O2210       O  0.85219545  0.49330690  0.13419544    -0.74400
O2211       O  0.89190157  0.40008203  0.16376288    -0.73900
O2212       O  0.81442766  0.43566724  0.07904364    -0.74600
O2213       O  0.84800749  0.35769222  0.13504643    -0.74200
O2214       O  0.84330114  0.44375474  0.16098499    -0.74800
O2215       O  0.97519250  0.48177231  0.13920497    -0.74200
O2216       O  0.90371548  0.52300277  0.07730638    -0.74900
O2217       O  0.93350196  0.49110008  0.16284765    -0.74300
O2218       O  0.96116175  0.52483930  0.08219826    -0.74800
O2219       O  0.95997729  0.43528054  0.07999982    -0.74700
O2220       O  0.90355524  0.37841465  0.07884136    -0.74500
C2221       C  0.79868656  0.39920410  0.07283112     0.77300
C2222       C  0.84217365  0.47523849  0.15731772     0.77800
C2223       C  0.86396369  0.36619224  0.15885795     0.76800
C2224       C  0.96472239  0.48975990  0.16185218     0.77100
C2225       C  0.94063238  0.54015144  0.07378225     0.78300
C2226       C  0.93992124  0.39901548  0.07331078     0.77300
Zn2227     Zn  0.97697806  0.61576035  0.00118002     1.49700
Zn2228     Zn  0.97698978  0.36352225  0.00031900     1.49400
Zn2229     Zn  0.67067957  0.33573102  0.05620261     1.49100
Zn2230     Zn  0.72363762  0.36251180  0.00085145     1.49500
O2231       O  0.66986106  0.33602992  0.01514305    -1.84000
O2232       O  0.92842424  0.60467213  0.97915006    -0.74600
O2233       O  0.95764685  0.38274012  0.03137340    -0.74400
O2234       O  0.97619800  0.61072891  0.07080994    -0.73900
O2235       O  0.92828205  0.66145041  0.97890041    -0.74600
O2236       O  0.95790104  0.57605426  0.03209410    -0.74200
O2237       O  0.97551743  0.36399518  0.06988088    -0.74800
O2238       O  0.76294524  0.38111199  0.03142630    -0.74200
O2239       O  0.67992144  0.41330883  0.97957100    -0.74900
O2240       O  0.72862391  0.36483499  0.07020609    -0.74300
O2241       O  0.73547666  0.41175514  0.97933553    -0.74800
O2242       O  0.73576754  0.66000306  0.97863746    -0.74700
O2243       O  0.67956048  0.60385093  0.97778247    -0.74500
C2244       C  0.91253539  0.62523416  0.97256972     0.77300
C2245       C  0.95878912  0.38094853  0.05751799     0.77800
C2246       C  0.95952358  0.57774670  0.05824195     0.76800
C2247       C  0.76131870  0.38067669  0.05753933     0.77100
C2248       C  0.71575231  0.42855977  0.97316441     0.78300
C2249       C  0.71559066  0.62413961  0.97166526     0.77300
Zn2250     Zn  0.99812629  0.66476509  0.55665148     1.49700
Zn2251     Zn  0.69047960  0.63664843  0.50067743     1.49400
Zn2252     Zn  0.94306610  0.63842854  0.50193244     1.49100
Zn2253     Zn  0.69184418  0.38644249  0.50157570     1.49500
O2254       O  0.99754623  0.66533764  0.51559479    -1.84000
O2255       O  0.69414111  0.63543099  0.57027433    -0.74600
O2256       O  0.98581642  0.58911442  0.47937202    -0.74400
O2257       O  0.90496795  0.61882687  0.53304642    -0.73900
O2258       O  0.71093388  0.61732002  0.53174568    -0.74600
O2259       O  0.94079151  0.63527690  0.57143786    -0.74200
O2260       O  0.92994388  0.58991627  0.47966864    -0.74800
O2261       O  0.98667127  0.39681507  0.47924340    -0.74200
O2262       O  0.73849167  0.34019735  0.47794130    -0.74900
O2263       O  0.93031601  0.34056270  0.47959267    -0.74300
O2264       O  0.73961909  0.39754931  0.47873844    -0.74800
O2265       O  0.71247375  0.42555923  0.53271517    -0.74700
O2266       O  0.69371177  0.38938189  0.57124566    -0.74500
C2267       C  0.71062791  0.61888269  0.55788037     0.77300
C2268       C  0.94977416  0.57368687  0.47312812     0.77800
C2269       C  0.90759697  0.61913513  0.55915474     0.76800
C2270       C  0.95057610  0.37677820  0.47301370     0.77100
C2271       C  0.75472989  0.37671396  0.47170648     0.78300
C2272       C  0.71103855  0.42290411  0.55889461     0.77300
C2273       C  0.69808980  0.50866745  0.23636487    -0.05900
C2274       C  0.70003247  0.48540343  0.21541057    -0.17100
C2275       C  0.67839881  0.47826570  0.19122211     0.11200
C2276       C  0.98641842  0.49440151  0.18782428    -0.05900
C2277       C  0.64819147  0.51368654  0.21014195    -0.17100
C2278       C  0.66968936  0.52050806  0.23452756     0.11300
S2279       S  0.68343653  0.44752890  0.16619046    -0.32100
S2280       S  0.66124525  0.54704945  0.26106629    -0.32100
H2281       H  0.70041274  0.57030388  0.26823091     0.29300
H2282       H  0.97498978  0.42380512  0.16202804     0.29300
H2283       H  0.72092426  0.47512577  0.21700439     0.19900
H2284       H  0.96046040  0.52512287  0.20755544     0.19900
C2285       C  0.80987124  0.62749388  0.23099759    -0.05900
C2286       C  0.85060619  0.64889670  0.22979949    -0.17100
C2287       C  0.86808463  0.33824207  0.20534120     0.11200
C2288       C  0.84619441  0.33924140  0.18232368    -0.05900
C2289       C  0.80645890  0.65239181  0.18559900    -0.17100
C2290       C  0.78773134  0.63027451  0.20895091     0.11300
S2291       S  0.92035696  0.36042807  0.20500449    -0.32100
S2292       S  0.73540966  0.60625168  0.21047851    -0.32100
H2293       H  0.72875942  0.61355500  0.18302011     0.29300
H2294       H  0.92262634  0.35438789  0.17673217     0.29300
H2295       H  0.86775468  0.64590244  0.24629927     0.19900
H2296       H  0.78933297  0.65510204  0.16896956     0.19900
C2297       C  0.83186625  0.49140660  0.18109052    -0.05900
C2298       C  0.80895513  0.46511937  0.20200193    -0.16500
C2299       C  0.79955044  0.47819873  0.22577925     0.11200
C2300       C  0.81358934  0.51881110  0.22910755    -0.05900
C2301       C  0.83758256  0.54520846  0.20871303    -0.17100
C2302       C  0.84740445  0.53219926  0.18509232     0.11300
S2303       S  0.76829414  0.44104485  0.25006382    -0.32100
S2304       S  0.88097069  0.56937246  0.16165998    -0.32100
H2305       H  0.90509940  0.55246793  0.15969469     0.29300
H2306       H  0.74935659  0.46120276  0.25831987     0.29300
H2307       H  0.79754211  0.43379513  0.19960791     0.19900
H2308       H  0.84825640  0.57642041  0.21100251     0.19900
C2309       C  0.82860029  0.34437632  0.34438327    -0.05900
C2310       C  0.80060688  0.34329189  0.32571953    -0.17100
C2311       C  0.79238851  0.65045079  0.30153711     0.11200
C2312       C  0.81191949  0.62919949  0.29669134    -0.05900
C2313       C  0.84129752  0.63295766  0.31500047    -0.17100
C2314       C  0.85002039  0.65550358  0.33884276     0.11300
S2315       S  0.75335825  0.31828803  0.27906097    -0.32100
S2316       S  0.88997930  0.66138763  0.36065263    -0.32100
H2317       H  0.90396890  0.64280221  0.34318975     0.29300
H2318       H  0.74655560  0.67348119  0.29237996     0.29300
H2319       H  0.78544696  0.35916996  0.33047416     0.19900
H2320       H  0.85609056  0.61648020  0.31125008     0.19900
C2321       C  0.70620518  0.51331479  0.30250176    -0.05900
C2322       C  0.70699924  0.53975874  0.32201698    -0.17100
C2323       C  0.68335891  0.52683730  0.34513410     0.11200
C2324       C  0.99576228  0.48826952  0.35208419    -0.05900
C2325       C  0.99327537  0.46177657  0.33182018    -0.17100
C2326       C  0.68101881  0.47267799  0.30631429     0.11300
S2327       S  0.68368759  0.56403322  0.36678892    -0.32100
S2328       S  0.67861383  0.43724670  0.28194247    -0.32100
H2329       H  0.64851981  0.40360020  0.29473535     0.29300
H2330       H  0.03917465  0.55176212  0.39264774     0.29300
H2331       H  0.72621985  0.57106156  0.31907454     0.19900
H2332       H  0.97403868  0.43058888  0.33506373     0.19900
C2333       C  0.84636390  0.50375785  0.34519795    -0.05900
C2334       C  0.87254178  0.53250658  0.32676693    -0.17100
C2335       C  0.85964443  0.54075397  0.30187039     0.11200
C2336       C  0.81973183  0.51908529  0.29503696    -0.05900
C2337       C  0.79434106  0.48819999  0.31237621    -0.17100
C2338       C  0.80711376  0.48003587  0.33723570     0.11300
S2339       S  0.89553647  0.58023608  0.28078796    -0.32100
S2340       S  0.77300309  0.43882688  0.35809575    -0.32100
H2341       H  0.74066189  0.42590209  0.34030517     0.29300
H2342       H  0.87042800  0.58656240  0.26359158     0.29300
H2343       H  0.90312116  0.54952104  0.33221110     0.19900
H2344       H  0.76360884  0.47228048  0.30734449     0.19900
C2345       C  0.96831584  0.47912546  0.79950103    -0.05900
C2346       C  0.99539499  0.51935627  0.79835643    -0.17100
C2347       C  0.01761773  0.53870056  0.82157976     0.11200
C2348       C  0.68148895  0.51823501  0.84553637    -0.05900
C2349       C  0.98986186  0.47608951  0.84600837    -0.17100
C2350       C  0.96784846  0.45701475  0.82285413     0.11300
S2351       S  0.71667653  0.59245388  0.81803401    -0.32100
S2352       S  0.94084168  0.40418762  0.82299137    -0.32100
H2353       H  0.94300998  0.39847544  0.85152077     0.29300
H2354       H  0.70742693  0.59989890  0.84436305     0.29300
H2355       H  0.99612715  0.53664514  0.78047588     0.19900
H2356       H  0.65602911  0.46019347  0.86340547     0.19900
C2357       C  0.84901725  0.36965297  0.79576592    -0.05900
C2358       C  0.82649199  0.37212082  0.81690319    -0.17100
C2359       C  0.81838833  0.34947961  0.84081921     0.11200
C2360       C  0.83427714  0.65684946  0.84420480    -0.05900
C2361       C  0.85253946  0.65070241  0.82152123    -0.17100
C2362       C  0.85909454  0.33974605  0.79700069     0.11300
S2363       S  0.78961137  0.35638650  0.86636933    -0.32100
S2364       S  0.88621987  0.33214036  0.77051373    -0.32100
H2365       H  0.91206628  0.37215786  0.76529337     0.29300
H2366       H  0.76463166  0.31589003  0.87075336     0.29300
H2367       H  0.81738999  0.39400570  0.81560441     0.19900
H2368       H  0.86264346  0.62954055  0.82307673     0.19900
C2369       C  0.82277265  0.49254984  0.85065489    -0.05900
C2370       C  0.86306633  0.51395936  0.84707702    -0.17100
C2371       C  0.88034604  0.51038626  0.82334699     0.11200
C2372       C  0.85717951  0.48394716  0.80259128    -0.05900
C2373       C  0.81663557  0.46296712  0.80573482    -0.17100
C2374       C  0.79917750  0.46677958  0.82962493     0.11300
S2375       S  0.93224800  0.54139871  0.82102089    -0.32100
S2376       S  0.74714155  0.43637367  0.83276400    -0.32100
H2377       H  0.74732154  0.43253452  0.86164630     0.29300
H2378       H  0.93516407  0.53787777  0.79256495     0.29300
H2379       H  0.88131743  0.53506331  0.86245766     0.19900
H2380       H  0.79876673  0.44160483  0.79038010     0.19900
C2381       C  0.67652592  0.49422442  0.68579406    -0.05900
C2382       C  0.99682220  0.51913596  0.69254441    -0.17100
C2383       C  0.97634173  0.51454779  0.71679861     0.11200
C2384       C  0.96793761  0.48262137  0.73458332    -0.05900
C2385       C  0.98318661  0.45786393  0.72908725    -0.17100
C2386       C  0.67132045  0.46475246  0.70526511     0.11300
S2387       S  0.96111884  0.54963793  0.72510434    -0.32100
S2388       S  0.68886861  0.43070067  0.69996343    -0.32100
H2389       H  0.68584900  0.43051820  0.67104164     0.29300
H2390       H  0.97466688  0.57268863  0.70095435     0.29300
H2391       H  0.00335415  0.54372745  0.67882277     0.19900
H2392       H  0.97609871  0.43284126  0.74253147     0.19900
C2393       C  0.82274620  0.66200239  0.68256478    -0.05900
C2394       C  0.79754639  0.66174525  0.70296511    -0.17100
C2395       C  0.81213121  0.35257206  0.72663527     0.11200
C2396       C  0.85264210  0.37723457  0.72956993    -0.05900
C2397       C  0.87755814  0.37725668  0.70924813    -0.17100
C2398       C  0.86332358  0.35338382  0.68619294     0.11300
S2399       S  0.77871643  0.35328990  0.75137759    -0.32100
S2400       S  0.89889991  0.35386452  0.66304991    -0.32100
H2401       H  0.88107594  0.31263361  0.66182378     0.29300
H2402       H  0.74427510  0.32435227  0.73890130     0.29300
H2403       H  0.76642259  0.64332962  0.70026523     0.19900
H2404       H  0.90870446  0.39627187  0.71138292     0.19900
C2405       C  0.83523703  0.51208411  0.68687515    -0.05900
C2406       C  0.85618818  0.53884315  0.70801210    -0.17100
C2407       C  0.86470775  0.52623274  0.73303202     0.11200
C2408       C  0.85277802  0.48614400  0.73672323    -0.05900
C2409       C  0.82808302  0.45918154  0.71702325    -0.17100
C2410       C  0.81929414  0.47146719  0.69224563     0.11300
S2411       S  0.89136759  0.56162459  0.75943192    -0.32100
S2412       S  0.78790262  0.43354770  0.66864384    -0.32100
H2413       H  0.76350426  0.44974150  0.66371968     0.29300
H2414       H  0.89740525  0.59530063  0.74454263     0.29300
H2415       H  0.86657065  0.56987682  0.70471755     0.19900
H2416       H  0.81783185  0.42818561  0.72006077     0.19900
Zn2417     Zn  0.80246303  0.85804984  0.60137200     1.49700
Zn2418     Zn  0.80299467  0.94178626  0.60037191     1.49400
Zn2419     Zn  0.72070326  0.85881285  0.60098387     1.49100
Zn2420     Zn  0.77625911  0.88734555  0.64787529     1.49500
O2421       O  0.77546227  0.88659975  0.60913413    -1.84000
O2422       O  0.85366746  0.89648651  0.58163560    -0.74600
O2423       O  0.76483492  0.95397982  0.57914527    -0.74400
O2424       O  0.70806557  0.80812266  0.58037845    -0.73900
O2425       O  0.85275619  0.95334067  0.57970876    -0.74600
O2426       O  0.76497173  0.80856665  0.57942841    -0.74200
O2427       O  0.70844435  0.89689569  0.57953698    -0.74800
O2428       O  0.73358448  0.83917840  0.66356950    -0.74200
O2429       O  0.81961651  0.97395752  0.63578086    -0.74900
O2430       O  0.69050152  0.84445747  0.63706845    -0.74300
O2431       O  0.77428987  0.93212221  0.66399483    -0.74800
O2432       O  0.82400419  0.89096406  0.66182404    -0.74700
O2433       O  0.81495456  0.83985071  0.63797839    -0.74500
C2434       C  0.86933620  0.93297813  0.57488841     0.77300
C2435       C  0.72853677  0.93345733  0.57323693     0.77800
C2436       C  0.72851971  0.79234340  0.57375522     0.76800
C2437       C  0.70005418  0.83497876  0.65996431     0.77100
C2438       C  0.80325748  0.96571522  0.65932714     0.78300
C2439       C  0.82452426  0.85906284  0.66040027     0.77300
C2440       C  0.89279846  0.77849718  0.79246565     0.45600
H2441       H  0.89267426  0.77662232  0.81536351    -0.03400
C2442       C  0.89300288  0.78357347  0.73946035     0.45700
H2443       H  0.89351667  0.78597295  0.71656039    -0.03400
C2444       C  0.93373675  0.79730152  0.78023160    -0.17100
C2445       C  0.86990745  0.73837390  0.77832884    -0.16800
C2446       C  0.87439374  0.80258817  0.78144062    -0.17200
C2447       C  0.93362892  0.80065456  0.75218108    -0.17200
C2448       C  0.87030487  0.74119230  0.75007227    -0.16800
C2449       C  0.87368815  0.80450883  0.75320711    -0.17100
Zn2450     Zn  0.72693576  0.86503928  0.92883831     1.49700
Zn2451     Zn  0.80897083  0.86456637  0.93015542     1.49400
Zn2452     Zn  0.78186089  0.89153620  0.88257285     1.49100
Zn2453     Zn  0.80804791  0.94704444  0.92912016     1.49500
O2454       O  0.78146608  0.89204892  0.92130430    -1.84000
O2455       O  0.71512205  0.81561682  0.95049375    -0.74600
O2456       O  0.82443490  0.84826418  0.89465898    -0.74400
O2457       O  0.73975173  0.89745253  0.86653373    -0.73900
O2458       O  0.77162941  0.81515852  0.95163196    -0.74600
O2459       O  0.69709551  0.84894578  0.89238084    -0.74200
O2460       O  0.77703215  0.84316110  0.86750424    -0.74800
O2461       O  0.81967684  0.97652578  0.89219863    -0.74200
O2462       O  0.85831745  0.90244586  0.95114140    -0.74900
O2463       O  0.82921623  0.93516162  0.86788912    -0.74300
O2464       O  0.85853898  0.95984017  0.94982786    -0.74800
O2465       O  0.77041728  0.95860300  0.95060889    -0.74700
O2466       O  0.71380440  0.90209412  0.94947237    -0.74500
C2467       C  0.73538627  0.79947243  0.95736462     0.77300
C2468       C  0.80593400  0.83824867  0.87175784     0.77800
C2469       C  0.70671284  0.86745861  0.86934149     0.76800
C2470       C  0.82809412  0.96679045  0.86938734     0.77100
C2471       C  0.87436624  0.93911975  0.95665914     0.78300
C2472       C  0.73408697  0.93822827  0.95627930     0.77300
Zn2473     Zn  0.93826781  0.80383200  0.43042793     1.49700
Zn2474     Zn  0.85763766  0.72081753  0.42887303     1.49400
Zn2475     Zn  0.85615595  0.80344022  0.42883626     1.49100
Zn2476     Zn  0.88547322  0.77756526  0.38182131     1.49500
O2477       O  0.88405855  0.77616682  0.42061449    -1.84000
O2478       O  0.95124099  0.76675346  0.45177088    -0.74600
O2479       O  0.80715524  0.70777503  0.44937539    -0.74400
O2480       O  0.89327667  0.85340401  0.45035753    -0.73900
O2481       O  0.89541889  0.70945553  0.45133660    -0.74600
O2482       O  0.94928818  0.85215009  0.45189203    -0.74200
O2483       O  0.80732846  0.76511146  0.45020846    -0.74800
O2484       O  0.88760272  0.82502299  0.36661178    -0.74200
O2485       O  0.84534254  0.69020538  0.39254231    -0.74900
O2486       O  0.83890877  0.81780634  0.39236660    -0.74300
O2487       O  0.84016998  0.73301707  0.36517550    -0.74800
O2488       O  0.93077300  0.77646657  0.36749801    -0.74700
O2489       O  0.97133026  0.82197787  0.39598168    -0.74500
C2490       C  0.93144041  0.73022470  0.45796813     0.77300
C2491       C  0.79140514  0.72834913  0.45603049     0.77800
C2492       C  0.92916083  0.86852554  0.45752456     0.76800
C2493       C  0.85696089  0.82711775  0.36942411     0.77100
C2494       C  0.83739367  0.69970672  0.36901213     0.78300
C2495       C  0.96396579  0.80536051  0.37262502     0.77300
C2496       C  0.77502854  0.88887801  0.29079697     0.45600
H2497       H  0.77847810  0.89016397  0.31363042    -0.03400
C2498       C  0.76743680  0.88594762  0.23796905     0.45700
H2499       H  0.76439337  0.88480356  0.21512297    -0.03400
C2500       C  0.73265675  0.86561912  0.28134513    -0.17100
C2501       C  0.79163082  0.92935504  0.27714124    -0.16800
C2502       C  0.79538449  0.86919590  0.27692199    -0.17200
C2503       C  0.72855221  0.86399834  0.25322883    -0.17200
C2504       C  0.78758555  0.92785153  0.24903897    -0.16800
C2505       C  0.79143400  0.86758179  0.24873584    -0.17100
Zn2506     Zn  0.86361829  0.72335831  0.10084912     1.49700
Zn2507     Zn  0.86367664  0.80733029  0.09945209     1.49400
Zn2508     Zn  0.88833166  0.77913154  0.14802915     1.49100
Zn2509     Zn  0.94521208  0.80541147  0.10198390     1.49500
O2510       O  0.89008118  0.77845461  0.10926213    -1.84000
O2511       O  0.81346007  0.71152257  0.07984874    -0.74600
O2512       O  0.84926443  0.82675915  0.13423050    -0.74400
O2513       O  0.89039196  0.73494847  0.16582293    -0.73900
O2514       O  0.81332784  0.76883615  0.07915189    -0.74600
O2515       O  0.84806803  0.69147221  0.13674911    -0.74200
O2516       O  0.84197134  0.77863214  0.16198922    -0.74800
O2517       O  0.97365010  0.81629588  0.13883567    -0.74200
O2518       O  0.90211137  0.85618220  0.07729772    -0.74900
O2519       O  0.93230857  0.82629298  0.16242310    -0.74300
O2520       O  0.95919779  0.85721135  0.08157179    -0.74800
O2521       O  0.95800816  0.76822247  0.08071575    -0.74700
O2522       O  0.90176307  0.71126706  0.07996278    -0.74500
C2523       C  0.79731589  0.73214282  0.07361372     0.77300
C2524       C  0.83941362  0.80920341  0.15756961     0.77800
C2525       C  0.86380308  0.70042983  0.16063301     0.76800
C2526       C  0.96353237  0.82496225  0.16133693     0.77100
C2527       C  0.93889705  0.87277530  0.07326404     0.78300
C2528       C  0.93808235  0.73188717  0.07429557     0.77300
Zn2529     Zn  0.97621450  0.94800926  0.00035897     1.49700
Zn2530     Zn  0.97649771  0.69753409  0.00145963     1.49400
Zn2531     Zn  0.66990773  0.66909035  0.05581020     1.49100
Zn2532     Zn  0.72380059  0.69603976  0.00097027     1.49500
O2533       O  0.66978538  0.66942741  0.01479310    -1.84000
O2534       O  0.92797265  0.93724325  0.97805374    -0.74600
O2535       O  0.95652644  0.71616712  0.03246151    -0.74400
O2536       O  0.97508438  0.94320890  0.06996474    -0.73900
O2537       O  0.92761659  0.99391598  0.97825334    -0.74600
O2538       O  0.95654201  0.90826907  0.03134655    -0.74200
O2539       O  0.97388586  0.69702890  0.07104786    -0.74800
O2540       O  0.76243908  0.71446592  0.03190699    -0.74200
O2541       O  0.68033166  0.74619620  0.97844964    -0.74900
O2542       O  0.72739735  0.69777145  0.07036141    -0.74300
O2543       O  0.73613124  0.74513059  0.97906813    -0.74800
O2544       O  0.73530148  0.99289132  0.97803243    -0.74700
O2545       O  0.67918561  0.93663241  0.97762263    -0.74500
C2546       C  0.91204862  0.95782263  0.97162419     0.77300
C2547       C  0.95715040  0.71393624  0.05860674     0.77800
C2548       C  0.95804574  0.91015856  0.05750161     0.76800
C2549       C  0.76029450  0.71368627  0.05799798     0.77100
C2550       C  0.71626987  0.76158529  0.97234621     0.78300
C2551       C  0.71513449  0.95689173  0.97130684     0.77300
Zn2552     Zn  0.99683203  0.99692962  0.55688863     1.49700
Zn2553     Zn  0.68933443  0.96993679  0.50058220     1.49400
Zn2554     Zn  0.94170600  0.97041284  0.50209333     1.49100
Zn2555     Zn  0.69093556  0.71868759  0.50087219     1.49500
O2556       O  0.99616162  0.99725719  0.51581391    -1.84000
O2557       O  0.69363635  0.96897299  0.57020549    -0.74600
O2558       O  0.98428308  0.92116529  0.47907657    -0.74400
O2559       O  0.90367063  0.95111357  0.53318588    -0.73900
O2560       O  0.70962362  0.95044159  0.53149782    -0.74600
O2561       O  0.93939819  0.96749642  0.57164182    -0.74200
O2562       O  0.92843678  0.92197975  0.47969199    -0.74800
O2563       O  0.98686236  0.73189874  0.47941756    -0.74200
O2564       O  0.73823383  0.67302762  0.47772756    -0.74900
O2565       O  0.93089938  0.67531778  0.47985149    -0.74300
O2566       O  0.73861712  0.73003968  0.47803562    -0.74800
O2567       O  0.71130110  0.75783587  0.53182572    -0.74700
O2568       O  0.69287822  0.72181897  0.57044052    -0.74500
C2569       C  0.70959091  0.95204318  0.55762683     0.77300
C2570       C  0.94825005  0.90588085  0.47281164     0.77800
C2571       C  0.90623612  0.95149317  0.55929535     0.76800
C2572       C  0.95078996  0.71152576  0.47315797     0.77100
C2573       C  0.75402715  0.70940485  0.47122619     0.78300
C2574       C  0.70990030  0.75527525  0.55799138     0.77300
C2575       C  0.69287373  0.84287379  0.23660259    -0.05900
C2576       C  0.69434934  0.81818384  0.21659667    -0.17100
C2577       C  0.67364108  0.81096313  0.19201097     0.11200
C2578       C  0.98558393  0.83016972  0.18711879    -0.05900
C2579       C  0.64440730  0.84842877  0.20903228    -0.17100
C2580       C  0.66533886  0.85569660  0.23371168     0.11300
S2581       S  0.67908771  0.77948672  0.16783860    -0.32100
S2582       S  0.65738223  0.88385481  0.25928331    -0.32100
H2583       H  0.69631701  0.90593213  0.26739005     0.29300
H2584       H  0.97384864  0.75897419  0.16188464     0.29300
H2585       H  0.71461384  0.80723571  0.21908013     0.19900
H2586       H  0.95994709  0.86137577  0.20658879     0.19900
C2587       C  0.80635168  0.96086077  0.22933412    -0.05900
C2588       C  0.84709183  0.98151710  0.22832005    -0.17100
C2589       C  0.86946468  0.67130842  0.20637531     0.11200
C2590       C  0.84705114  0.67263238  0.18380846    -0.05900
C2591       C  0.80389825  0.98551942  0.18365309    -0.17100
C2592       C  0.78466310  0.96380936  0.20703638     0.11300
S2593       S  0.92185951  0.69544907  0.20586836    -0.32100
S2594       S  0.73235722  0.94067366  0.20839154    -0.32100
H2595       H  0.72621751  0.94971397  0.18125926     0.29300
H2596       H  0.92430220  0.69104845  0.17736156     0.29300
H2597       H  0.86385675  0.97833188  0.24502563     0.19900
H2598       H  0.78720393  0.98849566  0.16681687     0.19900
C2599       C  0.82758319  0.82495458  0.18083813    -0.05900
C2600       C  0.80452367  0.79853502  0.20168702    -0.16500
C2601       C  0.79448667  0.81138511  0.22534951     0.11200
C2602       C  0.80792996  0.85190658  0.22857540    -0.05900
C2603       C  0.83177423  0.87837804  0.20813089    -0.17100
C2604       C  0.84221796  0.86562418  0.18466643     0.11300
S2605       S  0.76376459  0.77410061  0.24980179    -0.32100
S2606       S  0.87557786  0.90302753  0.16127357    -0.32100
H2607       H  0.90056615  0.88705922  0.15983208     0.29300
H2608       H  0.74578718  0.79446656  0.25953443     0.29300
H2609       H  0.79375822  0.76730706  0.19942282     0.19900
H2610       H  0.84203583  0.90950242  0.21032148     0.19900
C2611       C  0.82810816  0.67398543  0.34494443    -0.05900
C2612       C  0.80062945  0.67254936  0.32564799    -0.17100
C2613       C  0.79073268  0.98578464  0.30032629     0.11200
C2614       C  0.80984576  0.96435136  0.29480123    -0.05900
C2615       C  0.83980781  0.96790656  0.31241857    -0.17100
C2616       C  0.84927708  0.99018457  0.33644089     0.11300
S2617       S  0.75563008  0.64811400  0.27802416    -0.32100
S2618       S  0.88968835  0.99565614  0.35754587    -0.32100
H2619       H  0.90075826  0.97372142  0.34091751     0.29300
H2620       H  0.74148702  0.00490876  0.29413507     0.29300
H2621       H  0.78520158  0.68834117  0.32976795     0.19900
H2622       H  0.85430997  0.95129414  0.30805738     0.19900
C2623       C  0.70210384  0.84917155  0.30250935    -0.05900
C2624       C  0.70371285  0.87560218  0.32237528    -0.17100
C2625       C  0.68300124  0.86251246  0.34685281     0.11200
C2626       C  0.99223186  0.82109224  0.35002858    -0.05900
C2627       C  0.99017737  0.79505043  0.32954894    -0.17100
C2628       C  0.67813001  0.80848006  0.30693881     0.11300
S2629       S  0.68675805  0.89947446  0.37029942    -0.32100
S2630       S  0.67476257  0.77297262  0.28224690    -0.32100
H2631       H  0.64982996  0.73894596  0.29744726     0.29300
H2632       H  0.03554441  0.88517609  0.39091603     0.29300
H2633       H  0.72245391  0.90693369  0.31914508     0.19900
H2634       H  0.97104070  0.76377305  0.33247927     0.19900
C2635       C  0.84099954  0.83659807  0.34470784    -0.05900
C2636       C  0.86702719  0.86312254  0.32505393    -0.17100
C2637       C  0.85360890  0.87151414  0.30042969     0.11200
C2638       C  0.81328982  0.85204126  0.29496408    -0.05900
C2639       C  0.78768381  0.82336820  0.31358872    -0.17100
C2640       C  0.80088738  0.81544705  0.33837325     0.11300
S2641       S  0.88945916  0.90793411  0.27758187    -0.32100
S2642       S  0.76608169  0.77773634  0.36118964    -0.32100
H2643       H  0.73285358  0.76617886  0.34450621     0.29300
H2644       H  0.86547771  0.92012349  0.26430840     0.29300
H2645       H  0.89803912  0.87820187  0.32924605     0.19900
H2646       H  0.75672414  0.80908518  0.30950122     0.19900
C2647       C  0.96832623  0.81317004  0.79855953    -0.05900
C2648       C  0.99511153  0.85351085  0.79740162    -0.17100
C2649       C  0.01783202  0.87286580  0.82047410     0.11200
C2650       C  0.68213416  0.85077706  0.84469037    -0.05900
C2651       C  0.99112594  0.81012004  0.84461161    -0.17100
C2652       C  0.96880247  0.79103710  0.82159245     0.11300
S2653       S  0.71392073  0.92593237  0.81877179    -0.32100
S2654       S  0.94249264  0.73823185  0.82149685    -0.32100
H2655       H  0.95282381  0.73181159  0.84814090     0.29300
H2656       H  0.70367393  0.93139060  0.84535296     0.29300
H2657       H  0.99535018  0.87077739  0.77965312     0.19900
H2658       H  0.65954579  0.79223357  0.86128887     0.19900
C2659       C  0.84976230  0.70286744  0.79587355    -0.05900
C2660       C  0.82695585  0.70511009  0.81688730    -0.17100
C2661       C  0.81896337  0.68257913  0.84086558     0.11200
C2662       C  0.83280546  0.98955334  0.84371957    -0.05900
C2663       C  0.85039626  0.98293291  0.82081747    -0.17100
C2664       C  0.86053214  0.67344622  0.79738961     0.11300
S2665       S  0.78921959  0.68865573  0.86604945    -0.32100
S2666       S  0.88805841  0.66605840  0.77107321    -0.32100
H2667       H  0.91295984  0.70606001  0.76515380     0.29300
H2668       H  0.76531365  0.64809676  0.87087591     0.29300
H2669       H  0.81736802  0.72665857  0.81537529     0.19900
H2670       H  0.86042770  0.96171961  0.82227153     0.19900
C2671       C  0.82159277  0.82690396  0.84843685    -0.05900
C2672       C  0.86194863  0.84800380  0.84508923    -0.17100
C2673       C  0.87941077  0.84394250  0.82166068     0.11200
C2674       C  0.85637664  0.81713896  0.80107153    -0.05900
C2675       C  0.81576483  0.79678306  0.80377851    -0.17100
C2676       C  0.79806869  0.80139471  0.82724279     0.11300
S2677       S  0.93135342  0.87480493  0.81947780    -0.32100
S2678       S  0.74579602  0.77246272  0.82952828    -0.32100
H2679       H  0.74499283  0.76749085  0.85834272     0.29300
H2680       H  0.93440109  0.87091776  0.79108927     0.29300
H2681       H  0.88015928  0.86913509  0.86047162     0.19900
H2682       H  0.79797121  0.77541523  0.78840268     0.19900
C2683       C  0.67491302  0.82520157  0.68402816    -0.05900
C2684       C  0.99594203  0.85163591  0.69176567    -0.17100
C2685       C  0.97553142  0.84713327  0.71599430     0.11200
C2686       C  0.96724441  0.81530378  0.73381929    -0.05900
C2687       C  0.98235673  0.79042388  0.72834349    -0.17100
C2688       C  0.66987691  0.79562537  0.70332595     0.11300
S2689       S  0.96012838  0.88212450  0.72414765    -0.32100
S2690       S  0.68624099  0.76077896  0.69729184    -0.32100
H2691       H  0.68265743  0.76093904  0.66841218     0.29300
H2692       H  0.97581175  0.90653490  0.70079928     0.29300
H2693       H  0.00243677  0.87617651  0.67800002     0.19900
H2694       H  0.97526115  0.76543021  0.74181820     0.19900
C2695       C  0.81973113  0.99350740  0.68244319    -0.05900
C2696       C  0.79471188  0.99295181  0.70311350    -0.17100
C2697       C  0.81203716  0.68534492  0.72646759     0.11200
C2698       C  0.85257704  0.70924276  0.72975291    -0.05900
C2699       C  0.87758551  0.70876488  0.70972762    -0.17100
C2700       C  0.86337176  0.68523481  0.68653264     0.11300
S2701       S  0.77867423  0.68669088  0.75096067    -0.32100
S2702       S  0.89892776  0.68516276  0.66363497    -0.32100
H2703       H  0.88028298  0.64392274  0.66200422     0.29300
H2704       H  0.74417346  0.66137239  0.73674282     0.29300
H2705       H  0.76360921  0.97394241  0.70077644     0.19900
H2706       H  0.90875005  0.72730547  0.71211586     0.19900
C2707       C  0.83324489  0.84375899  0.68587619    -0.05900
C2708       C  0.85438575  0.87058097  0.70690320    -0.17100
C2709       C  0.86348307  0.85814799  0.73174718     0.11200
C2710       C  0.85199720  0.81812788  0.73535757    -0.05900
C2711       C  0.82732426  0.79105802  0.71569456    -0.17100
C2712       C  0.81771401  0.80318046  0.69117206     0.11300
S2713       S  0.89029090  0.89379035  0.75796526    -0.32100
S2714       S  0.78566571  0.76514780  0.66786517    -0.32100
H2715       H  0.76148078  0.78161178  0.66306055     0.29300
H2716       H  0.89772279  0.92752000  0.74254613     0.29300
H2717       H  0.86442522  0.90156629  0.70367061     0.19900
H2718       H  0.81745129  0.76011580  0.71864054     0.19900
loop_ 
_geom_bond_atom_site_label_1 
_geom_bond_atom_site_label_2 
_geom_bond_distance 
_geom_bond_site_symmetry_2 
_ccdc_geom_bond_type 
Zn1           O5   1.932       .  S
Zn1           O6   2.072       .  S
Zn1          O10   2.078       .  S
Zn1          O17   2.044       .  S
Zn2           O5   1.925       .  S
Zn2           O7   2.052       .  S
Zn2           O9   2.058       .  S
Zn2          O13   2.052       .  S
Zn3           O5   1.923       .  S
Zn3           O8   2.064       .  S
Zn3          O11   2.047       .  S
Zn3          O14   2.047       .  S
Zn4           O5   1.885       .  S
Zn4          O12   1.962       .  S
Zn4          O15   1.965       .  S
Zn4          O16   1.936       .  S
O6           C18   1.283       .  A
O7           C19   1.282       .  A
O8           C20   1.282       .  A
O9           C18   1.282       .  A
O10          C20   1.284       .  A
O11          C19   1.281       .  A
O12          C21   1.263       .  A
O13          C22   1.275       .  A
O14          C21   1.276       .  A
O15          C22   1.265       .  A
O16          C23   1.261       .  A
O17          C23   1.276       .  A
C18         C155   1.482       .  S
C19         C153   1.472       .  S
C20         C158   1.486       .  S
C21         C267   1.463       .  S
C22         C279   1.481       .  S
C23         C291   1.472       .  S
C24          H25   1.112       .  S
C24          C30   1.532       .  S
C24          C29   1.537       .  S
C24          C28   1.530       .  S
C26          H27   1.113       .  S
C26          C32   1.530       .  S
C26          C31   1.528       .  S
C26          C33   1.532       .  S
C28          C31   1.367       .  D
C28         C231   1.480       .  S
C29          C32   1.372       .  D
C29         C243   1.475       .  S
C30          C33   1.370       .  D
C30         C258   1.471       .  S
C31         C270   1.468       .  S
C32         C282   1.477       .  S
C33         C294   1.477       .  S
Zn34         O38   1.918       .  S
Zn34         O39   2.033       .  S
Zn34         O43   2.043       .  S
Zn34         O50   2.038       .  S
Zn35         O38   1.914       .  S
Zn35         O40   2.044       .  S
Zn35         O42   2.040       .  S
Zn35         O46   2.047       .  S
Zn36         O38   1.884       .  S
Zn36         O41   1.939       .  S
Zn36         O44   1.954       .  S
Zn36         O47   1.946       .  S
Zn37         O38   1.915       .  S
Zn37         O45   2.048       .  S
Zn37         O48   2.059       .  S
Zn37         O49   2.057       .  S
O39          C51   1.279       .  A
O40          C52   1.277       .  A
O41          C53   1.259       .  A
O42          C51   1.281       .  A
O43          C53   1.277       .  A
O44          C52   1.262       .  A
O45          C54   1.277       .  A
O46          C55   1.281       .  A
O47          C54   1.264       .  A
O48          C55   1.282       .  A
O49          C56   1.283       .  A
O50          C56   1.280       .  A
C51         C134   1.474       .  S
C52         C255   1.470       .  S
C53         C234   1.472       .  S
C54         C246   1.479       .  S
C55         C130   1.483       .  S
C56         C135   1.481       .  S
Zn57         O61   1.918       .  S
Zn57         O62   2.027       .  S
Zn57         O66   2.024       .  S
Zn57         O73   2.037       .  S
Zn58         O61   1.917       .  S
Zn58         O63   2.066       .  S
Zn58         O65   2.053       .  S
Zn58         O69   2.062       .  S
Zn59         O61   1.923       .  S
Zn59         O64   2.066       .  S
Zn59         O67   2.049       .  S
Zn59         O70   2.056       .  S
Zn60         O61   1.873       .  S
Zn60         O68   1.944       .  S
Zn60         O71   1.945       .  S
Zn60         O72   1.948       .  S
O62          C74   1.279       .  A
O63          C75   1.284       .  A
O64          C76   1.284       .  A
O65          C74   1.283       .  A
O66          C76   1.278       .  A
O67          C75   1.282       .  A
O68          C77   1.262       .  A
O69          C78   1.278       .  A
O70          C77   1.276       .  A
O71          C78   1.262       .  A
O72          C79   1.262       .  A
O73          C79   1.274       .  A
C74         C156   1.476       .  S
C75         C157   1.485       .  S
C76         C154   1.480       .  S
C77         C219   1.470       .  S
C78         C195   1.471       .  S
C79         C210   1.472       .  S
C80          H81   1.113       .  S
C80          C86   1.528       .  S
C80          C85   1.527       .  S
C80          C84   1.530       .  S
C82          H83   1.113       .  S
C82          C88   1.530       .  S
C82          C87   1.532       .  S
C82          C89   1.527       .  S
C84          C87   1.372       .  D
C84         C207   1.475       .  S
C85          C88   1.370       .  D
C85         C198   1.479       .  S
C86          C89   1.373       .  D
C86         C222   1.465       .  S
C87         C159   1.473       .  S
C88         C171   1.471       .  S
C89         C186   1.480       .  S
Zn90         O94   1.920       .  S
Zn90         O95   2.056       .  S
Zn90         O99   2.040       .  S
Zn90        O106   2.068       .  S
Zn91         O94   1.925       .  S
Zn91         O96   2.053       .  S
Zn91         O98   2.060       .  S
Zn91        O102   2.052       .  S
Zn92         O94   1.879       .  S
Zn92         O97   1.953       .  S
Zn92        O100   1.947       .  S
Zn92        O103   1.937       .  S
Zn93         O94   1.926       .  S
Zn93        O101   2.041       .  S
Zn93        O104   2.062       .  S
Zn93        O105   2.049       .  S
O95         C107   1.282       .  A
O96         C108   1.275       .  A
O97         C109   1.262       .  A
O98         C107   1.282       .  A
O99         C109   1.276       .  A
O100        C108   1.263       .  A
O101        C110   1.274       .  A
O102        C111   1.282       .  A
O103        C110   1.261       .  A
O104        C111   1.282       .  A
O105        C112   1.280       .  A
O106        C112   1.283       .  A
C107        C133   1.477       .  S
C108        C183   1.479       .  S
C109        C174   1.468       .  S
C110        C162   1.476       .  S
C111        C132   1.477       .  S
C112        C131   1.478       .  S
Zn113      O1325   1.976   1_556  S
Zn113       O118   2.040       .  S
Zn113       O122   2.009   1_556  S
Zn113      O1035   2.040       .  S
Zn114      O1023   1.979       .  S
Zn114       O119   2.006       .  S
Zn114       O725   2.037   1_544  S
Zn114      O1031   2.033   1_554  S
Zn115       O117   1.990       .  S
Zn115       O126   2.097       .  S
Zn115      O2536   2.088   1_445  S
Zn115      O1935   2.099   1_455  S
Zn116       O117   1.975       .  S
Zn116       O124   1.996       .  S
Zn116       O127   2.017   1_554  S
Zn116       O732   2.028   1_544  S
O117      Zn2529   1.976   1_445  S
O117      Zn1926   1.979   1_455  S
O118        C130   1.276       .  A
O119        C131   1.270       .  A
O120      Zn1323   2.089       .  S
O120        C132   1.283       .  A
O121       Zn416   2.045   1_556  S
O121        C130   1.276       .  A
O122        C132   1.271       .  A
O123      Zn1021   2.091       .  S
O123        C131   1.283       .  A
O124        C133   1.268       .  A
O125      Zn1926   2.037   1_456  S
O125        C134   1.276       .  A
O126        C133   1.283       .  A
O127        C134   1.273       .  A
O128       Zn418   2.034   1_556  S
O128        C135   1.275       .  A
O129      Zn1925   2.046   1_455  S
O129        C135   1.277       .  A
Zn136       O140   1.993       .  S
Zn136       O145   2.104       .  S
Zn136      O1047   2.083       .  S
Zn136      O1360   2.099       .  S
Zn137      O1952   1.980   1_455  S
Zn137       O144   2.002       .  S
Zn137      O1954   2.039   1_455  S
Zn137       O450   2.046       .  S
Zn138       O140   1.982       .  S
Zn138       O143   2.005       .  S
Zn138       O146   2.029       .  S
Zn138       O451   2.015       .  S
Zn139      O2556   1.976   1_445  S
Zn139       O150   2.049       .  S
Zn139       O151   2.025       .  S
Zn139      O1959   2.046   1_455  S
O140      Zn1043   1.980       .  S
O140      Zn1347   1.980       .  S
O141      Zn1948   2.080   1_455  S
O141        C153   1.282       .  A
O142      Zn1043   2.046       .  S
O142        C154   1.277       .  A
O143        C155   1.269       .  A
O144        C153   1.270       .  A
O145        C155   1.284       .  A
O146        C154   1.273       .  A
O147      Zn1045   2.043       .  S
O147        C156   1.277       .  A
O148       Zn741   2.043   1_545  S
O148        C157   1.276       .  A
O149       Zn742   2.019   1_545  S
O149        C156   1.273       .  A
O150        C157   1.277       .  A
O151        C158   1.272       .  A
O152      Zn2552   2.100   1_445  S
O152        C158   1.283       .  A
C159        C160   1.403       .  A
C159        C164   1.410       .  A
C160        C161   1.390       .  A
C160        H169   1.083       .  S
C161       C1974   1.412   1_455  A
C161        S165   1.803       .  S
C162       C1067   1.413       .  A
C162       C1069   1.409       .  A
C163        C164   1.397   1_655  A
C163       C1974   1.409       .  A
C163       H1982   1.084       .  S
C164        S166   1.801   1_455  S
S165       H1980   1.406   1_455  S
S166        H167   1.394   1_655  S
H168       S1071   1.407       .  S
H170       C1069   1.084       .  S
C171        C172   1.402       .  A
C171        C176   1.409       .  A
C172        C475   1.400       .  A
C172        H181   1.084       .  S
C173        C174   1.416       .  A
C173        C776   1.399   1_545  A
C173        S177   1.803       .  S
C174        C779   1.399   1_545  A
C175        C176   1.392       .  A
C175        C476   1.398       .  A
C175        H182   1.083       .  S
C176        S178   1.801       .  S
S177        H180   1.407       .  S
S178        H179   1.407       .  S
C183        C184   1.407       .  A
C183        C188   1.413       .  A
C184        C185   1.397       .  A
C184        H193   1.084       .  S
C185        C186   1.412       .  A
C185        S189   1.799       .  S
C186        C187   1.404       .  A
C187        C188   1.395       .  A
C187        H194   1.083       .  S
C188        S190   1.802       .  S
S189        H192   1.394       .  S
S190        H191   1.408       .  S
C195        C196   1.405       .  A
C195        C804   1.411   1_545  A
C196        C801   1.401   1_545  A
C196        H205   1.084       .  S
C197        C198   1.410       .  A
C197        C498   1.403       .  A
C197        S503   1.801       .  S
C198        C199   1.402       .  A
C199        C200   1.400       .  A
C199        H206   1.081       .  S
C200        C497   1.411       .  A
C200        S202   1.808       .  S
S201        C801   1.802       .  S
S201        H808   1.407   1_565  S
S202        H203   1.407       .  S
H204        S503   1.406       .  S
C207        C208   1.402       .  A
C207        C212   1.409       .  A
C208        C209   1.389       .  A
C208        H217   1.084       .  S
C209       C2022   1.411   1_455  A
C209        S213   1.801       .  S
C210        C211   1.407       .  A
C210       C1115   1.411       .  A
C211       C1118   1.401       .  A
C211        H218   1.082       .  S
C212       C2023   1.401   1_455  A
C212        S214   1.803       .  S
S213       H2028   1.407       .  S
S214        H215   1.407   1_455  S
H216       S1119   1.407       .  S
C219        C220   1.406       .  A
C219        C224   1.411       .  A
C220        C221   1.398       .  A
C220        H229   1.084       .  S
C221        C222   1.411       .  A
C221        S225   1.807       .  S
C222        C223   1.403       .  A
C223        C224   1.390       .  A
C223        H230   1.084       .  S
C224        S226   1.804       .  S
S225        H228   1.396       .  S
S226        H227   1.402       .  S
C231        C232   1.400       .  A
C231        C236   1.409       .  A
C232        C233   1.399       .  A
C232        H241   1.083       .  S
C233       C1140   1.420       .  A
C233       S1143   1.802       .  S
C234       C2045   1.419       .  A
C234       C2047   1.398   1_455  A
C235        C236   1.391       .  A
C235       C1140   1.398       .  A
C235       H1148   1.083       .  S
C236        S238   1.796       .  S
S237       C2045   1.803       .  S
S237        H240   1.407       .  S
S238        H239   1.407       .  S
H242       C2047   1.083       .  S
C243        C244   1.402       .  A
C243        C248   1.410       .  A
C244        C245   1.391       .  A
C244        H253   1.082       .  S
C245        C850   1.414   1_545  A
C245        S249   1.803       .  S
C246        C247   1.411       .  A
C246        C547   1.414       .  A
C247        C550   1.401       .  A
C247        H254   1.083       .  S
C248        C851   1.400   1_545  A
C248        S250   1.803   1_545  S
S249        H252   1.407   1_545  S
S250        H251   1.404   1_565  S
C255        C256   1.398       .  A
C255        C260   1.417       .  A
C256        C257   1.389       .  A
C256        H265   1.084       .  S
C257        C258   1.411       .  A
C257        S261   1.799       .  S
C258        C259   1.401       .  A
C259        C260   1.401       .  A
C259        H266   1.084       .  S
C260        S262   1.803       .  S
S261        H264   1.402       .  S
S262        H263   1.407       .  S
C267        C272   1.413       .  A
C267       C2080   1.399   1_455  A
C268        C269   1.394       .  A
C268       C1173   1.399       .  A
C268        H277   1.083       .  S
C269        C270   1.406       .  A
C269        S273   1.801       .  S
C270        C271   1.400       .  A
C271       C1178   1.399       .  A
C271        H278   1.084       .  S
C272       C2083   1.400   1_455  A
C272        S274   1.802       .  S
S273        H276   1.406       .  S
S274        H275   1.406       .  S
C279        C280   1.410       .  A
C279        C586   1.414       .  A
C280        C583   1.405       .  A
C280        H289   1.083       .  S
C281        C282   1.409       .  A
C281        C884   1.407   1_545  A
C281        S285   1.807       .  S
C282        C283   1.400       .  A
C283        C284   1.390       .  A
C283        H290   1.083       .  S
C284        C883   1.412   1_545  A
C284        S286   1.801       .  S
S285        H288   1.407       .  S
S286        H287   1.407       .  S
C291        C292   1.410       .  A
C291        C296   1.410       .  A
C292        C293   1.402       .  A
C292        H301   1.082       .  S
C293        C294   1.406       .  A
C293        S297   1.803       .  S
C294        C295   1.402       .  A
C295        C296   1.388       .  A
C295        H302   1.077       .  S
C296        S298   1.804       .  S
S297        H300   1.406       .  S
S298        H299   1.406       .  S
Zn303       O307   1.934       .  S
Zn303       O308   2.069       .  S
Zn303       O312   2.074       .  S
Zn303       O319   2.047       .  S
Zn304       O307   1.926       .  S
Zn304       O309   2.056       .  S
Zn304       O311   2.054       .  S
Zn304       O315   2.055       .  S
Zn305       O307   1.921       .  S
Zn305       O310   2.075       .  S
Zn305       O313   2.056       .  S
Zn305       O316   2.054       .  S
Zn306       O307   1.883       .  S
Zn306       O314   1.960       .  S
Zn306       O317   1.965       .  S
Zn306       O318   1.935       .  S
O308        C320   1.283       .  A
O309        C321   1.282       .  A
O310        C322   1.283       .  A
O311        C320   1.281       .  A
O312        C322   1.283       .  A
O313        C321   1.282       .  A
O314        C323   1.263       .  A
O315        C324   1.276       .  A
O316        C323   1.278       .  A
O317        C324   1.264       .  A
O318        C325   1.261       .  A
O319        C325   1.276       .  A
C320        C457   1.480       .  S
C321        C455   1.476       .  S
C322        C460   1.488       .  S
C323        C569   1.466       .  S
C324        C581   1.478       .  S
C325        C593   1.475       .  S
C326        H327   1.112       .  S
C326        C332   1.532       .  S
C326        C331   1.538       .  S
C326        C330   1.531       .  S
C328        H329   1.113       .  S
C328        C334   1.528       .  S
C328        C333   1.529       .  S
C328        C335   1.532       .  S
C330        C333   1.369       .  D
C330        C533   1.482       .  S
C331        C334   1.373       .  D
C331        C545   1.473       .  S
C332        C335   1.370       .  D
C332        C560   1.473       .  S
C333        C572   1.470       .  S
C334        C584   1.480       .  S
C335        C596   1.477       .  S
Zn336       O340   1.913       .  S
Zn336       O341   2.031       .  S
Zn336       O345   2.040       .  S
Zn336       O352   2.041       .  S
Zn337       O340   1.911       .  S
Zn337       O342   2.046       .  S
Zn337       O344   2.038       .  S
Zn337       O348   2.039       .  S
Zn338       O340   1.878       .  S
Zn338       O343   1.938       .  S
Zn338       O346   1.957       .  S
Zn338       O349   1.940       .  S
Zn339       O340   1.915       .  S
Zn339       O347   2.049       .  S
Zn339       O350   2.054       .  S
Zn339       O351   2.053       .  S
O341        C353   1.279       .  A
O342        C354   1.277       .  A
O343        C355   1.259       .  A
O344        C353   1.281       .  A
O345        C355   1.277       .  A
O346        C354   1.262       .  A
O347        C356   1.277       .  A
O348        C357   1.281       .  A
O349        C356   1.263       .  A
O350        C357   1.282       .  A
O351        C358   1.282       .  A
O352        C358   1.280       .  A
C353        C436   1.474       .  S
C354        C557   1.472       .  S
C355        C536   1.472       .  S
C356        C548   1.478       .  S
C357        C432   1.479       .  S
C358        C437   1.481       .  S
Zn359       O363   1.921       .  S
Zn359       O364   2.025       .  S
Zn359       O368   2.018       .  S
Zn359       O375   2.032       .  S
Zn360       O363   1.916       .  S
Zn360       O365   2.073       .  S
Zn360       O367   2.051       .  S
Zn360       O371   2.066       .  S
Zn361       O363   1.920       .  S
Zn361       O366   2.060       .  S
Zn361       O369   2.042       .  S
Zn361       O372   2.046       .  S
Zn362       O363   1.876       .  S
Zn362       O370   1.944       .  S
Zn362       O373   1.959       .  S
Zn362       O374   1.943       .  S
O364        C376   1.278       .  A
O365        C377   1.285       .  A
O366        C378   1.282       .  A
O367        C376   1.283       .  A
O368        C378   1.277       .  A
O369        C377   1.281       .  A
O370        C379   1.261       .  A
O371        C380   1.278       .  A
O372        C379   1.276       .  A
O373        C380   1.264       .  A
O374        C381   1.262       .  A
O375        C381   1.272       .  A
C376        C458   1.475       .  S
C377        C459   1.485       .  S
C378        C456   1.478       .  S
C379        C521   1.468       .  S
C380        C497   1.476       .  S
C381        C512   1.471       .  S
C382        H383   1.113       .  S
C382        C388   1.527       .  S
C382        C387   1.526       .  S
C382        C386   1.527       .  S
C384        H385   1.112       .  S
C384        C390   1.531       .  S
C384        C389   1.535       .  S
C384        C391   1.528       .  S
C386        C389   1.373       .  D
C386        C509   1.475       .  S
C387        C390   1.369       .  D
C387        C500   1.478       .  S
C388        C391   1.371       .  D
C388        C524   1.463       .  S
C389        C461   1.473       .  S
C390        C473   1.470       .  S
C391        C488   1.480       .  S
Zn392       O396   1.920       .  S
Zn392       O397   2.053       .  S
Zn392       O401   2.040       .  S
Zn392       O408   2.065       .  S
Zn393       O396   1.928       .  S
Zn393       O398   2.063       .  S
Zn393       O400   2.064       .  S
Zn393       O404   2.057       .  S
Zn394       O396   1.882       .  S
Zn394       O399   1.960       .  S
Zn394       O402   1.953       .  S
Zn394       O405   1.931       .  S
Zn395       O396   1.932       .  S
Zn395       O403   2.042       .  S
Zn395       O406   2.068       .  S
Zn395       O407   2.059       .  S
O397        C409   1.282       .  A
O398        C410   1.276       .  A
O399        C411   1.263       .  A
O400        C409   1.283       .  A
O401        C411   1.277       .  A
O402        C410   1.264       .  A
O403        C412   1.274       .  A
O404        C413   1.282       .  A
O405        C412   1.260       .  A
O406        C413   1.283       .  A
O407        C414   1.281       .  A
O408        C414   1.282       .  A
C409        C435   1.477       .  S
C410        C485   1.482       .  S
C411        C476   1.468       .  S
C412        C464   1.472       .  S
C413        C434   1.480       .  S
C414        C433   1.481       .  S
Zn415      O1627   1.974       .  S
Zn415       O420   2.037   1_554  S
Zn415       O424   2.015       .  S
Zn415      O1337   2.045   1_554  S
Zn416      O1325   1.980       .  S
Zn416       O421   2.011       .  S
Zn416      O1333   2.036   1_554  S
Zn417       O419   1.990       .  S
Zn417      O1932   2.087   1_455  S
Zn417      O2237   2.095   1_455  S
Zn417       O428   2.090       .  S
Zn418       O419   1.979       .  S
Zn418       O426   2.004       .  S
Zn418       O429   2.021   1_554  S
O419      Zn1925   1.976   1_454  S
O419      Zn2228   1.980   1_455  S
O420        C432   1.276       .  A
O421        C433   1.271       .  A
O422      Zn1625   2.094       .  S
O422        C434   1.283       .  A
O423       Zn718   2.034   1_556  S
O423        C432   1.275       .  A
O424        C434   1.271       .  A
O425      Zn1323   2.096       .  S
O425        C433   1.283       .  A
O426        C435   1.269       .  A
O427      Zn2228   2.032   1_456  S
O427        C436   1.276       .  A
O428        C435   1.282       .  A
O429        C436   1.274       .  A
O430       Zn720   2.033   1_556  S
O430        C437   1.274       .  A
O431      Zn2227   2.042   1_456  S
O431        C437   1.276       .  A
Zn438       O442   1.991       .  S
Zn438      O1349   2.084       .  S
Zn438       O447   2.101       .  S
Zn438      O1662   2.097       .  S
Zn439      O2254   1.978   1_455  S
Zn439      O2256   2.037   1_455  S
Zn439       O446   2.011       .  S
Zn439       O752   2.045       .  S
Zn440       O442   1.983       .  S
Zn440       O445   2.001       .  S
Zn440       O448   2.030       .  S
Zn440       O753   2.024       .  S
Zn441      O1952   1.975   1_455  S
Zn441      O2261   2.038   1_455  S
Zn441       O452   2.047       .  S
Zn441       O453   2.029       .  S
O442      Zn1345   1.979       .  S
O442      Zn1649   1.977       .  S
O443      Zn2250   2.083   1_455  S
O443        C455   1.282       .  A
O444      Zn1345   2.037       .  S
O444        C456   1.276       .  A
O445        C457   1.269       .  A
O446        C455   1.271       .  A
O447        C457   1.284       .  A
O448        C456   1.273       .  A
O449      Zn1347   2.046       .  S
O449        C458   1.278       .  A
O450        C459   1.276       .  A
O451        C458   1.273       .  A
O452        C459   1.277       .  A
O453        C460   1.272       .  A
O454      Zn1948   2.100   1_455  S
O454        C460   1.283       .  A
C461        C462   1.403       .  A
C461        C466   1.410       .  A
C462        C463   1.390       .  A
C462        H471   1.084       .  S
C463       C2276   1.413   1_455  A
C463        S467   1.803       .  S
C464       C1369   1.412       .  A
C464       C1371   1.408       .  A
C465       C2276   1.409       .  A
C465        C466   1.398   1_655  A
C465       H2284   1.084       .  S
C466        S468   1.802   1_455  S
S467       H2282   1.406   1_455  S
S468        H469   1.396   1_655  S
H470       S1373   1.406       .  S
H472       C1371   1.084       .  S
C473        C474   1.401       .  A
C473        C478   1.409       .  A
C474        C777   1.399       .  A
C474        H483   1.084       .  S
C475        C476   1.415       .  A
C475        S479   1.802       .  S
C477        C778   1.398       .  A
C477        C478   1.392       .  A
C477        H484   1.083       .  S
C478        S480   1.802       .  S
S479        H482   1.407       .  S
S480        H481   1.406       .  S
C485        C486   1.407       .  A
C485        C490   1.414       .  A
C486        C487   1.398       .  A
C486        H495   1.084       .  S
C487        C488   1.412       .  A
C487        S491   1.799       .  S
C488        C489   1.403       .  A
C489        C490   1.397       .  A
C489        H496   1.084       .  S
C490        S492   1.802       .  S
S491        H494   1.394       .  S
S492        H493   1.408       .  S
C497        C498   1.404       .  A
C498        H507   1.083       .  S
C499        C800   1.403       .  A
C499        C500   1.409       .  A
C499        S805   1.802       .  S
C500        C501   1.402       .  A
C501        C502   1.399       .  A
C501        H508   1.082       .  S
C502        C799   1.411       .  A
C502        S504   1.808       .  S
S504        H505   1.407       .  S
H506        S805   1.407       .  S
C509        C510   1.403       .  A
C509        C514   1.409       .  A
C510        C511   1.390       .  A
C510        H519   1.084       .  S
C511       C2324   1.411   1_455  A
C511        S515   1.801       .  S
C512       C1417   1.412       .  A
C512        C513   1.406       .  A
C513       C1420   1.398       .  A
C513        H520   1.083       .  S
C514       C2325   1.400   1_455  A
C514        S516   1.802       .  S
S515       H2330   1.407       .  S
S516        H517   1.407   1_455  S
H518       S1421   1.407       .  S
C521        C522   1.407       .  A
C521        C526   1.410       .  A
C522        C523   1.398       .  A
C522        H531   1.084       .  S
C523        C524   1.408       .  A
C523        S527   1.806       .  S
C524        C525   1.403       .  A
C525        C526   1.393       .  A
C525        H532   1.082       .  S
C526        S528   1.810       .  S
S527        H530   1.400       .  S
S528        H529   1.407       .  S
C533        C534   1.400       .  A
C533        C538   1.411       .  A
C534        C535   1.400       .  A
C534        H543   1.083       .  S
C535       C1442   1.420       .  A
C535       S1445   1.802       .  S
C536       C2347   1.419       .  A
C536       C2349   1.398   1_455  A
C537       C1442   1.397       .  A
C537        C538   1.390       .  A
C537       H1450   1.083       .  S
C538        S540   1.796       .  S
S539       C2347   1.803       .  S
S539        H542   1.407       .  S
S540        H541   1.407       .  S
H544       C2349   1.083       .  S
C545        C546   1.401       .  A
C545        C550   1.411       .  A
C546        C547   1.389       .  A
C546        H555   1.083       .  S
C547        S551   1.803       .  S
C548        C849   1.413       .  A
C548        C549   1.410       .  A
C549        C852   1.399       .  A
C549        H556   1.083       .  S
C550        S552   1.804       .  S
S551        H554   1.406       .  S
S552        H553   1.405       .  S
C557        C558   1.398       .  A
C557        C562   1.417       .  A
C558        C559   1.389       .  A
C558        H567   1.084       .  S
C559        C560   1.412       .  A
C559        S563   1.799       .  S
C560        C561   1.401       .  A
C561        C562   1.402       .  A
C561        H568   1.084       .  S
C562        S564   1.803       .  S
S563        H566   1.402       .  S
S564        H565   1.407       .  S
C569       C2382   1.400   1_455  A
C569        C574   1.414       .  A
C570       C1475   1.399       .  A
C570        C571   1.395       .  A
C570        H579   1.083       .  S
C571        C572   1.407       .  A
C571        S575   1.802       .  S
C572        C573   1.400       .  A
C573       C1480   1.400       .  A
C573        H580   1.084       .  S
C574       C2385   1.400   1_455  A
C574        S576   1.802       .  S
S575        H578   1.406       .  S
S576        H577   1.406       .  S
C581        C582   1.409       .  A
C581        C888   1.413       .  A
C582        C885   1.405       .  A
C582        H591   1.083       .  S
C583        C584   1.408       .  A
C583        S587   1.807       .  S
C584        C585   1.402       .  A
C585        C586   1.397       .  A
C585        H592   1.082       .  S
C586        S588   1.810       .  S
S587        H590   1.407       .  S
S588        H589   1.407       .  S
C593        C594   1.410       .  A
C593        C598   1.411       .  A
C594        C595   1.401       .  A
C594        H603   1.083       .  S
C595        C596   1.405       .  A
C595        S599   1.802       .  S
C596        C597   1.403       .  A
C597        C598   1.389       .  A
C597        H604   1.081       .  S
C598        S600   1.803       .  S
S599        H602   1.406       .  S
S600        H601   1.406       .  S
Zn605       O609   1.932       .  S
Zn605       O610   2.067       .  S
Zn605       O614   2.074       .  S
Zn605       O621   2.043       .  S
Zn606       O609   1.921       .  S
Zn606       O611   2.057       .  S
Zn606       O613   2.058       .  S
Zn606       O617   2.047       .  S
Zn607       O609   1.920       .  S
Zn607       O612   2.061       .  S
Zn607       O615   2.047       .  S
Zn607       O618   2.043       .  S
Zn608       O609   1.885       .  S
Zn608       O616   1.958       .  S
Zn608       O619   1.969       .  S
Zn608       O620   1.937       .  S
O610        C622   1.283       .  A
O611        C623   1.282       .  A
O612        C624   1.281       .  A
O613        C622   1.282       .  A
O614        C624   1.283       .  A
O615        C623   1.280       .  A
O616        C625   1.262       .  A
O617        C626   1.275       .  A
O618        C625   1.276       .  A
O619        C626   1.264       .  A
O620        C627   1.262       .  A
O621        C627   1.275       .  A
C622        C759   1.480       .  S
C623        C757   1.474       .  S
C624        C762   1.484       .  S
C625        C871   1.461       .  S
C626        C883   1.477       .  S
C627        C895   1.474       .  S
C628        H629   1.112       .  S
C628        C634   1.532       .  S
C628        C633   1.537       .  S
C628        C632   1.531       .  S
C630        H631   1.113       .  S
C630        C636   1.528       .  S
C630        C635   1.528       .  S
C630        C637   1.533       .  S
C632        C635   1.367       .  D
C632        C835   1.478       .  S
C633        C636   1.371       .  D
C633        C847   1.472       .  S
C634        C637   1.370       .  D
C634        C862   1.473       .  S
C635        C874   1.470       .  S
C636        C886   1.476       .  S
C637        C898   1.477       .  S
Zn638       O642   1.914       .  S
Zn638       O643   2.036       .  S
Zn638       O647   2.039       .  S
Zn638       O654   2.037       .  S
Zn639       O642   1.912       .  S
Zn639       O644   2.041       .  S
Zn639       O646   2.039       .  S
Zn639       O650   2.041       .  S
Zn640       O642   1.883       .  S
Zn640       O645   1.941       .  S
Zn640       O648   1.954       .  S
Zn640       O651   1.943       .  S
Zn641       O642   1.916       .  S
Zn641       O649   2.052       .  S
Zn641       O652   2.060       .  S
Zn641       O653   2.055       .  S
O643        C655   1.279       .  A
O644        C656   1.277       .  A
O645        C657   1.259       .  A
O646        C655   1.281       .  A
O647        C657   1.277       .  A
O648        C656   1.262       .  A
O649        C658   1.276       .  A
O650        C659   1.281       .  A
O651        C658   1.264       .  A
O652        C659   1.283       .  A
O653        C660   1.282       .  A
O654        C660   1.279       .  A
C655        C738   1.476       .  S
C656        C859   1.469       .  S
C657        C838   1.472       .  S
C658        C850   1.481       .  S
C659        C734   1.482       .  S
C660        C739   1.480       .  S
Zn661       O665   1.921       .  S
Zn661       O666   2.029       .  S
Zn661       O670   2.028       .  S
Zn661       O677   2.030       .  S
Zn662       O665   1.921       .  S
Zn662       O667   2.067       .  S
Zn662       O669   2.057       .  S
Zn662       O673   2.065       .  S
Zn663       O665   1.923       .  S
Zn663       O668   2.063       .  S
Zn663       O671   2.049       .  S
Zn663       O674   2.056       .  S
Zn664       O665   1.883       .  S
Zn664       O672   1.951       .  S
Zn664       O675   1.958       .  S
Zn664       O676   1.948       .  S
O666        C678   1.278       .  A
O667        C679   1.284       .  A
O668        C680   1.283       .  A
O669        C678   1.283       .  A
O670        C680   1.278       .  A
O671        C679   1.282       .  A
O672        C681   1.262       .  A
O673        C682   1.278       .  A
O674        C681   1.277       .  A
O675        C682   1.264       .  A
O676        C683   1.263       .  A
O677        C683   1.273       .  A
C678        C760   1.479       .  S
C679        C761   1.486       .  S
C680        C758   1.480       .  S
C681        C823   1.472       .  S
C682        C799   1.475       .  S
C683        C814   1.470       .  S
C684        H685   1.113       .  S
C684        C690   1.527       .  S
C684        C689   1.525       .  S
C684        C688   1.526       .  S
C686        H687   1.112       .  S
C686        C692   1.530       .  S
C686        C691   1.532       .  S
C686        C693   1.530       .  S
C688        C691   1.370       .  D
C688        C811   1.472       .  S
C689        C692   1.369       .  D
C689        C802   1.473       .  S
C690        C693   1.375       .  D
C690        C826   1.468       .  S
C691        C763   1.470       .  S
C692        C775   1.471       .  S
C693        C790   1.481       .  S
Zn694       O698   1.922       .  S
Zn694       O699   2.052       .  S
Zn694       O703   2.032       .  S
Zn694       O710   2.065       .  S
Zn695       O698   1.929       .  S
Zn695       O700   2.060       .  S
Zn695       O702   2.063       .  S
Zn695       O706   2.051       .  S
Zn696       O698   1.883       .  S
Zn696       O701   1.956       .  S
Zn696       O704   1.949       .  S
Zn696       O707   1.935       .  S
Zn697       O698   1.932       .  S
Zn697       O705   2.042       .  S
Zn697       O708   2.061       .  S
Zn697       O709   2.052       .  S
O699        C711   1.281       .  A
O700        C712   1.275       .  A
O701        C713   1.263       .  A
O702        C711   1.283       .  A
O703        C713   1.276       .  A
O704        C712   1.264       .  A
O705        C714   1.274       .  A
O706        C715   1.282       .  A
O707        C714   1.261       .  A
O708        C715   1.282       .  A
O709        C716   1.280       .  A
O710        C716   1.282       .  A
C711        C737   1.477       .  S
C712        C787   1.483       .  S
C713        C778   1.466       .  S
C714        C766   1.476       .  S
C715        C736   1.476       .  S
C716        C735   1.479       .  S
Zn717      O1023   1.974   1_566  S
Zn717       O722   2.042       .  S
Zn717       O726   2.013   1_556  S
Zn717      O1639   2.046       .  S
Zn718      O1627   1.980       .  S
Zn718       O723   2.009       .  S
Zn718      O1635   2.035   1_554  S
Zn719       O721   1.991       .  S
Zn719      O2234   2.091   1_455  S
Zn719      O2539   2.098   1_455  S
Zn719       O730   2.095       .  S
Zn720       O721   1.976       .  S
Zn720       O728   1.999       .  S
Zn720       O731   2.022   1_554  S
O721      Zn2227   1.975   1_455  S
O721      Zn2530   1.979   1_455  S
O722        C734   1.276       .  A
O723        C735   1.270       .  A
O724      Zn1021   2.082   1_565  S
O724        C736   1.282       .  A
O725        C734   1.275       .  A
O726        C736   1.271       .  A
O727      Zn1625   2.095       .  S
O727        C735   1.283       .  A
O728        C737   1.269       .  A
O729      Zn2530   2.037   1_456  S
O729        C738   1.276       .  A
O730        C737   1.283       .  A
O731        C738   1.274       .  A
O732        C739   1.274       .  A
O733      Zn2529   2.046   1_456  S
O733        C739   1.277       .  A
Zn740       O744   1.994       .  S
Zn740      O1651   2.087       .  S
Zn740       O749   2.103       .  S
Zn740      O1058   2.100   1_565  S
Zn741      O2556   1.979   1_455  S
Zn741      O2558   2.040   1_455  S
Zn741       O748   2.007       .  S
Zn742       O744   1.981       .  S
Zn742       O747   1.999       .  S
Zn742       O750   2.031       .  S
Zn743      O2254   1.979   1_455  S
Zn743      O2563   2.047   1_455  S
Zn743       O754   2.050       .  S
Zn743       O755   2.025       .  S
O744      Zn1647   1.980       .  S
O744      Zn1045   1.978   1_565  S
O745      Zn2552   2.083   1_455  S
O745        C757   1.282       .  A
O746      Zn1647   2.044       .  S
O746        C758   1.277       .  A
O747        C759   1.269       .  A
O748        C757   1.271       .  A
O749        C759   1.284       .  A
O750        C758   1.273       .  A
O751      Zn1649   2.049       .  S
O751        C760   1.278       .  A
O752        C761   1.276       .  A
O753        C760   1.274       .  A
O754        C761   1.277       .  A
O755        C762   1.273       .  A
O756      Zn2250   2.096   1_455  S
O756        C762   1.283       .  A
C763        C764   1.402       .  A
C763        C768   1.410       .  A
C764        C765   1.389       .  A
C764        H773   1.084       .  S
C765       C2578   1.413   1_455  A
C765        S769   1.803       .  S
C766       C1671   1.413       .  A
C766       C1673   1.409       .  A
C767       C2578   1.408       .  A
C767        C768   1.396   1_655  A
C767       H2586   1.084       .  S
C768        S770   1.802   1_455  S
S769       H2584   1.406   1_455  S
S770        H771   1.395   1_655  S
H772       S1675   1.406       .  S
H774       C1673   1.084       .  S
C775        C776   1.401       .  A
C775        C780   1.408       .  A
C776        H785   1.084       .  S
C777        C778   1.415       .  A
C777        S781   1.802       .  S
C779        C780   1.393       .  A
C779        H786   1.083       .  S
C780        S782   1.802       .  S
S781        H784   1.407       .  S
S782        H783   1.406       .  S
C787        C788   1.408       .  A
C787        C792   1.414       .  A
C788        C789   1.397       .  A
C788        H797   1.084       .  S
C789        C790   1.411       .  A
C789        S793   1.798       .  S
C790        C791   1.405       .  A
C791        C792   1.397       .  A
C791        H798   1.084       .  S
C792        S794   1.802       .  S
S793        H796   1.396       .  S
S794        H795   1.407       .  S
C799        C800   1.405       .  A
C800        H809   1.083       .  S
C801        C802   1.408       .  A
C802        C803   1.401       .  A
C803        C804   1.397       .  A
C803        H810   1.083       .  S
C804        S806   1.808       .  S
S806        H807   1.407       .  S
C811        C812   1.401       .  A
C811        C816   1.408       .  A
C812        C813   1.388       .  A
C812        H821   1.084       .  S
C813       C2626   1.411   1_455  A
C813        S817   1.801       .  S
C814       C1719   1.410       .  A
C814        C815   1.407       .  A
C815       C1722   1.401       .  A
C815        H822   1.083       .  S
C816       C2627   1.400   1_455  A
C816        S818   1.803       .  S
S817       H2632   1.407       .  S
S818        H819   1.407   1_455  S
H820       S1723   1.407       .  S
C823        C824   1.407       .  A
C823        C828   1.410       .  A
C824        C825   1.400       .  A
C824        H833   1.084       .  S
C825        C826   1.411       .  A
C825        S829   1.807       .  S
C826        C827   1.404       .  A
C827        C828   1.394       .  A
C827        H834   1.082       .  S
C828        S830   1.810       .  S
S829        H832   1.398       .  S
S830        H831   1.407       .  S
C835        C836   1.400       .  A
C835        C840   1.409       .  A
C836        C837   1.399       .  A
C836        H845   1.083       .  S
C837       C1744   1.419       .  A
C837       S1747   1.803       .  S
C838       C2649   1.419       .  A
C838       C2651   1.398   1_455  A
C839       C1744   1.397       .  A
C839        C840   1.389       .  A
C839       H1752   1.083       .  S
C840        S842   1.795       .  S
S841       C2649   1.803       .  S
S841        H844   1.407       .  S
S842        H843   1.407       .  S
H846       C2651   1.083       .  S
C847        C848   1.401       .  A
C847        C852   1.410       .  A
C848        C849   1.390       .  A
C848        H857   1.082       .  S
C849        S853   1.803       .  S
C850        C851   1.411       .  A
C851        H858   1.083       .  S
C852        S854   1.804       .  S
S853        H856   1.406       .  S
S854        H855   1.404       .  S
C859        C860   1.397       .  A
C859        C864   1.417       .  A
C860        C861   1.388       .  A
C860        H869   1.085       .  S
C861        C862   1.412       .  A
C861        S865   1.797       .  S
C862        C863   1.401       .  A
C863        C864   1.402       .  A
C863        H870   1.084       .  S
C864        S866   1.803       .  S
S865        H868   1.402       .  S
S866        H867   1.407       .  S
C871       C2684   1.399   1_455  A
C871        C876   1.413       .  A
C872       C1777   1.399       .  A
C872        C873   1.392       .  A
C872        H881   1.083       .  S
C873        C874   1.407       .  A
C873        S877   1.802       .  S
C874        C875   1.400       .  A
C875       C1782   1.400       .  A
C875        H882   1.084       .  S
C876       C2687   1.399   1_455  A
C876        S878   1.802       .  S
S877        H880   1.406       .  S
S878        H879   1.406       .  S
C883        C884   1.409       .  A
C884        H893   1.083       .  S
C885        C886   1.408       .  A
C885        S889   1.807       .  S
C886        C887   1.401       .  A
C887        C888   1.396       .  A
C887        H894   1.083       .  S
C888        S890   1.810       .  S
S889        H892   1.407       .  S
S890        H891   1.407       .  S
C895        C896   1.410       .  A
C895        C900   1.411       .  A
C896        C897   1.401       .  A
C896        H905   1.083       .  S
C897        C898   1.407       .  A
C897        S901   1.803       .  S
C898        C899   1.402       .  A
C899        C900   1.388       .  A
C899        H906   1.081       .  S
C900        S902   1.803       .  S
S901        H904   1.406       .  S
S902        H903   1.406       .  S
Zn907       O911   1.936       .  S
Zn907       O912   2.069       .  S
Zn907       O916   2.073       .  S
Zn907       O923   2.048       .  S
Zn908       O911   1.926       .  S
Zn908       O913   2.060       .  S
Zn908       O915   2.054       .  S
Zn908       O919   2.055       .  S
Zn909       O911   1.920       .  S
Zn909       O914   2.067       .  S
Zn909       O917   2.049       .  S
Zn909       O920   2.045       .  S
Zn910       O911   1.883       .  S
Zn910       O918   1.963       .  S
Zn910       O921   1.963       .  S
Zn910       O922   1.936       .  S
O912        C924   1.283       .  A
O913        C925   1.283       .  A
O914        C926   1.282       .  A
O915        C924   1.281       .  A
O916        C926   1.283       .  A
O917        C925   1.281       .  A
O918        C927   1.263       .  A
O919        C928   1.276       .  A
O920        C927   1.277       .  A
O921        C928   1.264       .  A
O922        C929   1.261       .  A
O923        C929   1.275       .  A
C924       C1061   1.479       .  S
C925       C1059   1.475       .  S
C926       C1064   1.486       .  S
C927       C1173   1.463       .  S
C928       C1185   1.479       .  S
C929       C1197   1.474       .  S
C930        H931   1.112       .  S
C930        C936   1.531       .  S
C930        C935   1.538       .  S
C930        C934   1.531       .  S
C932        H933   1.113       .  S
C932        C938   1.529       .  S
C932        C937   1.529       .  S
C932        C939   1.531       .  S
C934        C937   1.367       .  D
C934       C1137   1.481       .  S
C935        C938   1.373       .  D
C935       C1149   1.474       .  S
C936        C939   1.369       .  D
C936       C1164   1.470       .  S
C937       C1176   1.468       .  S
C938       C1188   1.478       .  S
C939       C1200   1.474       .  S
Zn940       O944   1.917       .  S
Zn940       O945   2.035       .  S
Zn940       O949   2.043       .  S
Zn940       O956   2.038       .  S
Zn941       O944   1.912       .  S
Zn941       O946   2.041       .  S
Zn941       O948   2.037       .  S
Zn941       O952   2.040       .  S
Zn942       O944   1.881       .  S
Zn942       O947   1.937       .  S
Zn942       O950   1.953       .  S
Zn942       O953   1.947       .  S
Zn943       O944   1.915       .  S
Zn943       O951   2.051       .  S
Zn943       O954   2.061       .  S
Zn943       O955   2.053       .  S
O945        C957   1.279       .  A
O946        C958   1.277       .  A
O947        C959   1.259       .  A
O948        C957   1.280       .  A
O949        C959   1.277       .  A
O950        C958   1.262       .  A
O951        C960   1.277       .  A
O952        C961   1.281       .  A
O953        C960   1.264       .  A
O954        C961   1.283       .  A
O955        C962   1.282       .  A
O956        C962   1.280       .  A
C957       C1040   1.475       .  S
C958       C1161   1.468       .  S
C959       C1140   1.473       .  S
C960       C1152   1.480       .  S
C961       C1036   1.482       .  S
C962       C1041   1.479       .  S
Zn963       O967   1.926       .  S
Zn963       O968   2.023       .  S
Zn963       O972   2.022       .  S
Zn963       O979   2.034       .  S
Zn964       O967   1.922       .  S
Zn964       O969   2.069       .  S
Zn964       O971   2.050       .  S
Zn964       O975   2.066       .  S
Zn965       O967   1.925       .  S
Zn965       O970   2.063       .  S
Zn965       O973   2.051       .  S
Zn965       O976   2.048       .  S
Zn966       O967   1.882       .  S
Zn966       O974   1.947       .  S
Zn966       O977   1.959       .  S
Zn966       O978   1.949       .  S
O968        C980   1.278       .  A
O969        C981   1.284       .  A
O970        C982   1.283       .  A
O971        C980   1.282       .  A
O972        C982   1.277       .  A
O973        C981   1.281       .  A
O974        C983   1.262       .  A
O975        C984   1.278       .  A
O976        C983   1.276       .  A
O977        C984   1.264       .  A
O978        C985   1.263       .  A
O979        C985   1.273       .  A
C980       C1062   1.474       .  S
C981       C1063   1.487       .  S
C982       C1060   1.479       .  S
C983       C1125   1.471       .  S
C984       C1101   1.477       .  S
C985       C1116   1.472       .  S
C986        H987   1.113       .  S
C986        C992   1.528       .  S
C986        C991   1.525       .  S
C986        C990   1.527       .  S
C988        H989   1.112       .  S
C988        C994   1.530       .  S
C988        C993   1.534       .  S
C988        C995   1.528       .  S
C990        C993   1.372       .  D
C990       C1113   1.476       .  S
C991        C994   1.370       .  D
C991       C1104   1.475       .  S
C992        C995   1.373       .  D
C992       C1128   1.465       .  S
C993       C1065   1.472       .  S
C994       C1077   1.473       .  S
C995       C1092   1.479       .  S
Zn996      O1000   1.924       .  S
Zn996      O1001   2.056       .  S
Zn996      O1005   2.045       .  S
Zn996      O1012   2.068       .  S
Zn997      O1000   1.932       .  S
Zn997      O1002   2.065       .  S
Zn997      O1004   2.064       .  S
Zn997      O1008   2.057       .  S
Zn998      O1000   1.884       .  S
Zn998      O1003   1.956       .  S
Zn998      O1006   1.950       .  S
Zn998      O1009   1.937       .  S
Zn999      O1000   1.932       .  S
Zn999      O1007   2.044       .  S
Zn999      O1010   2.065       .  S
Zn999      O1011   2.058       .  S
O1001      C1013   1.282       .  A
O1002      C1014   1.276       .  A
O1003      C1015   1.262       .  A
O1004      C1013   1.283       .  A
O1005      C1015   1.277       .  A
O1006      C1014   1.263       .  A
O1007      C1016   1.275       .  A
O1008      C1017   1.282       .  A
O1009      C1016   1.262       .  A
O1010      C1017   1.282       .  A
O1011      C1018   1.281       .  A
O1012      C1018   1.282       .  A
C1013      C1039   1.478       .  S
C1014      C1089   1.480       .  S
C1015      C1080   1.471       .  S
C1016      C1068   1.476       .  S
C1017      C1038   1.479       .  S
C1018      C1037   1.482       .  S
Zn1019     O2231   1.976       .  S
Zn1019     O1024   2.039   1_554  S
Zn1019     O1028   2.012       .  S
Zn1019     O1941   2.050   1_554  S
Zn1020     O1929   1.981       .  S
Zn1020     O1025   2.015       .  S
Zn1020     O1631   2.042   1_544  S
Zn1020     O1937   2.031   1_554  S
Zn1021     O1023   1.990       .  S
Zn1021     O1032   2.092       .  S
Zn1022     O1023   1.976       .  S
Zn1022     O1030   2.005       .  S
Zn1022     O1033   2.022   1_554  S
Zn1022     O1638   2.034   1_544  S
O1024      C1036   1.276       .  A
O1025      C1037   1.271       .  A
O1026     Zn2229   2.092       .  S
O1026      C1038   1.283       .  A
O1027     Zn1322   2.044   1_556  S
O1027      C1036   1.276       .  A
O1028      C1038   1.271       .  A
O1029     Zn1927   2.094       .  S
O1029      C1037   1.283       .  A
O1030      C1039   1.270       .  A
O1031      C1040   1.276       .  A
O1032      C1039   1.283       .  A
O1033      C1040   1.274       .  A
O1034     Zn1324   2.033   1_556  S
O1034      C1041   1.275       .  A
O1035      C1041   1.276       .  A
Zn1042     O1046   1.991       .  S
Zn1042     O1953   2.079       .  S
Zn1042     O1051   2.100       .  S
Zn1042     O2266   2.096       .  S
Zn1043     O1050   2.009       .  S
Zn1043     O1356   2.049       .  S
Zn1044     O1046   1.980       .  S
Zn1044     O1049   1.999       .  S
Zn1044     O1052   2.027       .  S
Zn1044     O1357   2.014       .  S
Zn1045     O1056   2.051       .  S
Zn1045     O1057   2.025       .  S
O1046     Zn1949   1.977       .  S
O1046     Zn2253   1.977       .  S
O1047      C1059   1.282       .  A
O1048     Zn1949   2.042       .  S
O1048      C1060   1.277       .  A
O1049      C1061   1.268       .  A
O1050      C1059   1.271       .  A
O1051      C1061   1.283       .  A
O1052      C1060   1.273       .  A
O1053     Zn1951   2.041       .  S
O1053      C1062   1.278       .  A
O1054     Zn1647   2.048   1_545  S
O1054      C1063   1.276       .  A
O1055     Zn1648   2.016   1_545  S
O1055      C1062   1.273       .  A
O1056      C1063   1.278       .  A
O1057      C1064   1.272       .  A
O1058      C1064   1.284       .  A
C1065      C1066   1.403       .  A
C1065      C1070   1.410       .  A
C1066      C1067   1.390       .  A
C1066      H1075   1.083       .  S
C1067      S1071   1.803       .  S
C1068      C1973   1.413       .  A
C1068      C1975   1.409       .  A
C1069      C1070   1.397       .  A
C1070      S1072   1.802       .  S
S1072      H1073   1.397       .  S
H1074      S1977   1.406       .  S
H1076      C1975   1.084       .  S
C1077      C1078   1.401       .  A
C1077      C1082   1.409       .  A
C1078      C1381   1.400       .  A
C1078      H1087   1.083       .  S
C1079      C1682   1.401   1_545  A
C1079      C1080   1.417       .  A
C1079      S1083   1.802       .  S
C1080      C1685   1.398   1_545  A
C1081      C1382   1.398       .  A
C1081      C1082   1.392       .  A
C1081      H1088   1.083       .  S
C1082      S1084   1.801       .  S
S1083      H1086   1.407       .  S
S1084      H1085   1.406       .  S
C1089      C1090   1.407       .  A
C1089      C1094   1.413       .  A
C1090      C1091   1.398       .  A
C1090      H1099   1.084       .  S
C1091      C1092   1.412       .  A
C1091      S1095   1.801       .  S
C1092      C1093   1.404       .  A
C1093      C1094   1.397       .  A
C1093      H1100   1.084       .  S
C1094      S1096   1.802       .  S
S1095      H1098   1.393       .  S
S1096      H1097   1.408       .  S
C1101      C1102   1.406       .  A
C1101      C1710   1.411   1_545  A
C1102      C1707   1.404   1_545  A
C1102      H1111   1.083       .  S
C1103      C1404   1.401       .  A
C1103      C1104   1.407       .  A
C1103      S1409   1.802       .  S
C1104      C1105   1.403       .  A
C1105      C1106   1.399       .  A
C1105      H1112   1.081       .  S
C1106      C1403   1.411       .  A
C1106      S1108   1.808       .  S
S1107      C1707   1.803       .  S
S1107      H1714   1.406   1_565  S
S1108      H1109   1.407       .  S
H1110      S1409   1.407       .  S
C1113      C1114   1.403       .  A
C1113      C1118   1.408       .  A
C1114      C1115   1.394       .  A
C1114      H1123   1.082       .  S
C1115      S1119   1.810       .  S
C1116      C2021   1.411       .  A
C1116      C1117   1.407       .  A
C1117      C2024   1.400       .  A
C1117      H1124   1.082       .  S
C1118      S1120   1.802       .  S
S1120      H1121   1.406       .  S
H1122      S2025   1.407       .  S
C1125      C1126   1.408       .  A
C1125      C1130   1.411       .  A
C1126      C1127   1.398       .  A
C1126      H1135   1.084       .  S
C1127      C1128   1.409       .  A
C1127      S1131   1.806       .  S
C1128      C1129   1.403       .  A
C1129      C1130   1.394       .  A
C1129      H1136   1.083       .  S
C1130      S1132   1.809       .  S
S1131      H1134   1.400       .  S
S1132      H1133   1.408       .  S
C1137      C1138   1.401       .  A
C1137      C1142   1.409       .  A
C1138      C1139   1.401       .  A
C1138      H1147   1.083       .  S
C1139      C2046   1.420       .  A
C1139      S2049   1.803       .  S
C1141      C2046   1.398       .  A
C1141      C1142   1.391       .  A
C1141      H2054   1.083       .  S
C1142      S1144   1.796       .  S
S1143      H1146   1.407       .  S
S1144      H1145   1.407       .  S
C1149      C1150   1.401       .  A
C1149      C1154   1.411       .  A
C1150      C1151   1.389       .  A
C1150      H1159   1.082       .  S
C1151      C1756   1.414   1_545  A
C1151      S1155   1.804       .  S
C1152      C1453   1.414       .  A
C1152      C1153   1.411       .  A
C1153      C1456   1.401       .  A
C1153      H1160   1.083       .  S
C1154      C1757   1.401   1_545  A
C1154      S1156   1.804       .  S
S1155      H1158   1.406   1_545  S
S1156      H1157   1.404       .  S
C1161      C1162   1.397       .  A
C1161      C1166   1.416       .  A
C1162      C1163   1.388       .  A
C1162      H1171   1.085       .  S
C1163      C1164   1.411       .  A
C1163      S1167   1.799       .  S
C1164      C1165   1.401       .  A
C1165      C1166   1.401       .  A
C1165      H1172   1.084       .  S
C1166      S1168   1.803       .  S
S1167      H1170   1.401       .  S
S1168      H1169   1.407       .  S
C1173      C1178   1.413       .  A
C1174      C2079   1.399       .  A
C1174      C1175   1.393       .  A
C1174      H1183   1.083       .  S
C1175      C1176   1.406       .  A
C1175      S1179   1.800       .  S
C1176      C1177   1.400       .  A
C1177      C2084   1.399       .  A
C1177      H1184   1.084       .  S
C1178      S1180   1.802       .  S
S1179      H1182   1.407       .  S
S1180      H1181   1.406       .  S
C1185      C1186   1.409       .  A
C1185      C1492   1.413       .  A
C1186      C1489   1.404       .  A
C1186      H1195   1.083       .  S
C1187      C1790   1.406   1_545  A
C1187      C1188   1.409       .  A
C1187      S1191   1.806       .  S
C1188      C1189   1.401       .  A
C1189      C1190   1.390       .  A
C1189      H1196   1.083       .  S
C1190      C1789   1.412   1_545  A
C1190      S1192   1.803       .  S
S1191      H1194   1.407   1_545  S
S1192      H1193   1.408   1_545  S
C1197      C1198   1.410       .  A
C1197      C1202   1.412       .  A
C1198      C1199   1.400       .  A
C1198      H1207   1.083       .  S
C1199      C1200   1.405       .  A
C1199      S1203   1.803       .  S
C1200      C1201   1.402       .  A
C1201      C1202   1.390       .  A
C1201      H1208   1.082       .  S
C1202      S1204   1.803       .  S
S1203      H1206   1.406       .  S
S1204      H1205   1.406       .  S
Zn1209     O1213   1.934       .  S
Zn1209     O1214   2.068       .  S
Zn1209     O1218   2.076       .  S
Zn1209     O1225   2.049       .  S
Zn1210     O1213   1.927       .  S
Zn1210     O1215   2.059       .  S
Zn1210     O1217   2.056       .  S
Zn1210     O1221   2.054       .  S
Zn1211     O1213   1.922       .  S
Zn1211     O1216   2.068       .  S
Zn1211     O1219   2.050       .  S
Zn1211     O1222   2.050       .  S
Zn1212     O1213   1.885       .  S
Zn1212     O1220   1.961       .  S
Zn1212     O1223   1.963       .  S
Zn1212     O1224   1.938       .  S
O1214      C1226   1.283       .  A
O1215      C1227   1.283       .  A
O1216      C1228   1.282       .  A
O1217      C1226   1.282       .  A
O1218      C1228   1.284       .  A
O1219      C1227   1.281       .  A
O1220      C1229   1.263       .  A
O1221      C1230   1.276       .  A
O1222      C1229   1.277       .  A
O1223      C1230   1.264       .  A
O1224      C1231   1.261       .  A
O1225      C1231   1.276       .  A
C1226      C1363   1.480       .  S
C1227      C1361   1.475       .  S
C1228      C1366   1.487       .  S
C1229      C1475   1.466       .  S
C1230      C1487   1.479       .  S
C1231      C1499   1.475       .  S
C1232      H1233   1.112       .  S
C1232      C1238   1.532       .  S
C1232      C1237   1.538       .  S
C1232      C1236   1.532       .  S
C1234      H1235   1.113       .  S
C1234      C1240   1.528       .  S
C1234      C1239   1.528       .  S
C1234      C1241   1.533       .  S
C1236      C1239   1.368       .  D
C1236      C1439   1.482       .  S
C1237      C1240   1.372       .  D
C1237      C1451   1.473       .  S
C1238      C1241   1.371       .  D
C1238      C1466   1.474       .  S
C1239      C1478   1.469       .  S
C1240      C1490   1.478       .  S
C1241      C1502   1.476       .  S
Zn1242     O1246   1.916       .  S
Zn1242     O1247   2.037       .  S
Zn1242     O1251   2.041       .  S
Zn1242     O1258   2.039       .  S
Zn1243     O1246   1.911       .  S
Zn1243     O1248   2.043       .  S
Zn1243     O1250   2.037       .  S
Zn1243     O1254   2.041       .  S
Zn1244     O1246   1.882       .  S
Zn1244     O1249   1.938       .  S
Zn1244     O1252   1.957       .  S
Zn1244     O1255   1.945       .  S
Zn1245     O1246   1.915       .  S
Zn1245     O1253   2.051       .  S
Zn1245     O1256   2.061       .  S
Zn1245     O1257   2.060       .  S
O1247      C1259   1.280       .  A
O1248      C1260   1.277       .  A
O1249      C1261   1.259       .  A
O1250      C1259   1.280       .  A
O1251      C1261   1.277       .  A
O1252      C1260   1.262       .  A
O1253      C1262   1.278       .  A
O1254      C1263   1.281       .  A
O1255      C1262   1.264       .  A
O1256      C1263   1.283       .  A
O1257      C1264   1.283       .  A
O1258      C1264   1.280       .  A
C1259      C1342   1.475       .  S
C1260      C1463   1.471       .  S
C1261      C1442   1.473       .  S
C1262      C1454   1.479       .  S
C1263      C1338   1.482       .  S
C1264      C1343   1.481       .  S
Zn1265     O1269   1.923       .  S
Zn1265     O1270   2.023       .  S
Zn1265     O1274   2.023       .  S
Zn1265     O1281   2.031       .  S
Zn1266     O1269   1.923       .  S
Zn1266     O1271   2.070       .  S
Zn1266     O1273   2.049       .  S
Zn1266     O1277   2.064       .  S
Zn1267     O1269   1.921       .  S
Zn1267     O1272   2.057       .  S
Zn1267     O1275   2.051       .  S
Zn1267     O1278   2.049       .  S
Zn1268     O1269   1.881       .  S
Zn1268     O1276   1.950       .  S
Zn1268     O1279   1.951       .  S
Zn1268     O1280   1.948       .  S
O1270      C1282   1.277       .  A
O1271      C1283   1.284       .  A
O1272      C1284   1.282       .  A
O1273      C1282   1.282       .  A
O1274      C1284   1.277       .  A
O1275      C1283   1.282       .  A
O1276      C1285   1.263       .  A
O1277      C1286   1.278       .  A
O1278      C1285   1.277       .  A
O1279      C1286   1.263       .  A
O1280      C1287   1.263       .  A
O1281      C1287   1.274       .  A
C1282      C1364   1.474       .  S
C1283      C1365   1.488       .  S
C1284      C1362   1.477       .  S
C1285      C1427   1.474       .  S
C1286      C1403   1.473       .  S
C1287      C1418   1.468       .  S
C1288      H1289   1.113       .  S
C1288      C1294   1.528       .  S
C1288      C1293   1.525       .  S
C1288      C1292   1.526       .  S
C1290      H1291   1.112       .  S
C1290      C1296   1.530       .  S
C1290      C1295   1.532       .  S
C1290      C1297   1.528       .  S
C1292      C1295   1.370       .  D
C1292      C1415   1.474       .  S
C1293      C1296   1.370       .  D
C1293      C1406   1.475       .  S
C1294      C1297   1.374       .  D
C1294      C1430   1.468       .  S
C1295      C1367   1.469       .  S
C1296      C1379   1.473       .  S
C1297      C1394   1.479       .  S
Zn1298     O1302   1.927       .  S
Zn1298     O1303   2.059       .  S
Zn1298     O1307   2.042       .  S
Zn1298     O1314   2.070       .  S
Zn1299     O1302   1.934       .  S
Zn1299     O1304   2.066       .  S
Zn1299     O1306   2.067       .  S
Zn1299     O1310   2.057       .  S
Zn1300     O1302   1.889       .  S
Zn1300     O1305   1.955       .  S
Zn1300     O1308   1.950       .  S
Zn1300     O1311   1.939       .  S
Zn1301     O1302   1.934       .  S
Zn1301     O1309   2.045       .  S
Zn1301     O1312   2.067       .  S
Zn1301     O1313   2.061       .  S
O1303      C1315   1.282       .  A
O1304      C1316   1.277       .  A
O1305      C1317   1.262       .  A
O1306      C1315   1.283       .  A
O1307      C1317   1.277       .  A
O1308      C1316   1.263       .  A
O1309      C1318   1.275       .  A
O1310      C1319   1.282       .  A
O1311      C1318   1.262       .  A
O1312      C1319   1.283       .  A
O1313      C1320   1.281       .  A
O1314      C1320   1.282       .  A
C1315      C1341   1.480       .  S
C1316      C1391   1.482       .  S
C1317      C1382   1.469       .  S
C1318      C1370   1.477       .  S
C1319      C1340   1.479       .  S
C1320      C1339   1.483       .  S
Zn1321     O2533   1.975       .  S
Zn1321     O1326   2.041   1_554  S
Zn1321     O1330   2.015       .  S
Zn1321     O2243   2.049   1_554  S
Zn1322     O2231   1.982       .  S
Zn1322     O1327   2.015       .  S
Zn1322     O2239   2.033   1_554  S
Zn1323     O1325   1.991       .  S
Zn1323     O1334   2.097       .  S
Zn1324     O1325   1.977       .  S
Zn1324     O1332   2.008       .  S
Zn1324     O1335   2.022   1_554  S
O1326      C1338   1.277       .  A
O1327      C1339   1.271       .  A
O1328     Zn2531   2.088       .  S
O1328      C1340   1.283       .  A
O1329     Zn1624   2.041   1_556  S
O1329      C1338   1.276       .  A
O1330      C1340   1.272       .  A
O1331     Zn2229   2.101       .  S
O1331      C1339   1.284       .  A
O1332      C1341   1.270       .  A
O1333      C1342   1.276       .  A
O1334      C1341   1.283       .  A
O1335      C1342   1.274       .  A
O1336     Zn1626   2.033   1_556  S
O1336      C1343   1.274       .  A
O1337      C1343   1.277       .  A
Zn1344     O1348   1.990       .  S
Zn1344     O2255   2.083       .  S
Zn1344     O1353   2.099       .  S
Zn1344     O2568   2.094       .  S
Zn1345     O1352   2.007       .  S
Zn1345     O1658   2.044       .  S
Zn1346     O1348   1.979       .  S
Zn1346     O1351   2.002       .  S
Zn1346     O1354   2.025       .  S
Zn1346     O1659   2.017       .  S
Zn1347     O1358   2.053       .  S
Zn1347     O1359   2.028       .  S
O1348     Zn2251   1.977       .  S
O1348     Zn2555   1.975       .  S
O1349      C1361   1.282       .  A
O1350     Zn2251   2.039       .  S
O1350      C1362   1.277       .  A
O1351      C1363   1.269       .  A
O1352      C1361   1.270       .  A
O1353      C1363   1.283       .  A
O1354      C1362   1.273       .  A
O1355     Zn2253   2.042       .  S
O1355      C1364   1.278       .  A
O1356      C1365   1.276       .  A
O1357      C1364   1.273       .  A
O1358      C1365   1.278       .  A
O1359      C1366   1.273       .  A
O1360      C1366   1.283       .  A
C1367      C1368   1.403       .  A
C1367      C1372   1.409       .  A
C1368      C1369   1.389       .  A
C1368      H1377   1.084       .  S
C1369      S1373   1.803       .  S
C1370      C2275   1.413       .  A
C1370      C2277   1.409       .  A
C1371      C1372   1.395       .  A
C1372      S1374   1.802       .  S
S1374      H1375   1.396       .  S
H1376      S2279   1.407       .  S
H1378      C2277   1.084       .  S
C1379      C1380   1.401       .  A
C1379      C1384   1.410       .  A
C1380      C1683   1.400       .  A
C1380      H1389   1.083       .  S
C1381      C1382   1.416       .  A
C1381      S1385   1.802       .  S
C1383      C1684   1.398       .  A
C1383      C1384   1.392       .  A
C1383      H1390   1.083       .  S
C1384      S1386   1.802       .  S
S1385      H1388   1.407       .  S
S1386      H1387   1.406       .  S
C1391      C1392   1.408       .  A
C1391      C1396   1.413       .  A
C1392      C1393   1.399       .  A
C1392      H1401   1.084       .  S
C1393      C1394   1.412       .  A
C1393      S1397   1.801       .  S
C1394      C1395   1.405       .  A
C1395      C1396   1.396       .  A
C1395      H1402   1.084       .  S
C1396      S1398   1.802       .  S
S1397      H1400   1.394       .  S
S1398      H1399   1.407       .  S
C1403      C1404   1.405       .  A
C1404      H1413   1.083       .  S
C1405      C1706   1.402       .  A
C1405      C1406   1.408       .  A
C1405      S1711   1.803       .  S
C1406      C1407   1.402       .  A
C1407      C1408   1.399       .  A
C1407      H1414   1.082       .  S
C1408      C1705   1.411       .  A
C1408      S1410   1.808       .  S
S1410      H1411   1.407       .  S
H1412      S1711   1.407       .  S
C1415      C1416   1.403       .  A
C1415      C1420   1.408       .  A
C1416      C1417   1.394       .  A
C1416      H1425   1.083       .  S
C1417      S1421   1.810       .  S
C1418      C2323   1.410       .  A
C1418      C1419   1.406       .  A
C1419      C2326   1.401       .  A
C1419      H1426   1.083       .  S
C1420      S1422   1.803       .  S
S1422      H1423   1.406       .  S
H1424      S2327   1.408       .  S
C1427      C1428   1.409       .  A
C1427      C1432   1.411       .  A
C1428      C1429   1.400       .  A
C1428      H1437   1.084       .  S
C1429      C1430   1.408       .  A
C1429      S1433   1.805       .  S
C1430      C1431   1.403       .  A
C1431      C1432   1.394       .  A
C1431      H1438   1.082       .  S
C1432      S1434   1.810       .  S
S1433      H1436   1.402       .  S
S1434      H1435   1.408       .  S
C1439      C1440   1.402       .  A
C1439      C1444   1.410       .  A
C1440      C1441   1.401       .  A
C1440      H1449   1.083       .  S
C1441      C2348   1.420       .  A
C1441      S2351   1.802       .  S
C1443      C2348   1.397       .  A
C1443      C1444   1.389       .  A
C1443      H2356   1.083       .  S
C1444      S1446   1.796       .  S
S1445      H1448   1.407       .  S
S1446      H1447   1.407       .  S
C1451      C1452   1.401       .  A
C1451      C1456   1.410       .  A
C1452      C1453   1.390       .  A
C1452      H1461   1.082       .  S
C1453      S1457   1.804       .  S
C1454      C1755   1.413       .  A
C1454      C1455   1.411       .  A
C1455      C1758   1.401       .  A
C1455      H1462   1.083       .  S
C1456      S1458   1.804       .  S
S1457      H1460   1.406       .  S
S1458      H1459   1.404       .  S
C1463      C1464   1.397       .  A
C1463      C1468   1.417       .  A
C1464      C1465   1.388       .  A
C1464      H1473   1.084       .  S
C1465      C1466   1.412       .  A
C1465      S1469   1.798       .  S
C1466      C1467   1.402       .  A
C1467      C1468   1.403       .  A
C1467      H1474   1.084       .  S
C1468      S1470   1.803       .  S
S1469      H1472   1.402       .  S
S1470      H1471   1.407       .  S
C1475      C1480   1.414       .  A
C1476      C2381   1.400       .  A
C1476      C1477   1.395       .  A
C1476      H1485   1.083       .  S
C1477      C1478   1.407       .  A
C1477      S1481   1.802       .  S
C1478      C1479   1.400       .  A
C1479      C2386   1.399       .  A
C1479      H1486   1.084       .  S
C1480      S1482   1.802       .  S
S1481      H1484   1.406       .  S
S1482      H1483   1.406       .  S
C1487      C1488   1.409       .  A
C1487      C1794   1.413       .  A
C1488      C1791   1.405       .  A
C1488      H1497   1.083       .  S
C1489      C1490   1.408       .  A
C1489      S1493   1.807       .  S
C1490      C1491   1.402       .  A
C1491      C1492   1.397       .  A
C1491      H1498   1.082       .  S
C1492      S1494   1.810       .  S
S1493      H1496   1.407       .  S
S1494      H1495   1.407       .  S
C1499      C1500   1.411       .  A
C1499      C1504   1.411       .  A
C1500      C1501   1.402       .  A
C1500      H1509   1.081       .  S
C1501      C1502   1.405       .  A
C1501      S1505   1.803       .  S
C1502      C1503   1.402       .  A
C1503      C1504   1.389       .  A
C1503      H1510   1.077       .  S
C1504      S1506   1.803       .  S
S1505      H1508   1.406       .  S
S1506      H1507   1.406       .  S
Zn1511     O1515   1.935       .  S
Zn1511     O1516   2.069       .  S
Zn1511     O1520   2.076       .  S
Zn1511     O1527   2.054       .  S
Zn1512     O1515   1.925       .  S
Zn1512     O1517   2.054       .  S
Zn1512     O1519   2.054       .  S
Zn1512     O1523   2.048       .  S
Zn1513     O1515   1.919       .  S
Zn1513     O1518   2.066       .  S
Zn1513     O1521   2.055       .  S
Zn1513     O1524   2.043       .  S
Zn1514     O1515   1.886       .  S
Zn1514     O1522   1.959       .  S
Zn1514     O1525   1.963       .  S
Zn1514     O1526   1.937       .  S
O1516      C1528   1.283       .  A
O1517      C1529   1.282       .  A
O1518      C1530   1.282       .  A
O1519      C1528   1.281       .  A
O1520      C1530   1.284       .  A
O1521      C1529   1.281       .  A
O1522      C1531   1.263       .  A
O1523      C1532   1.276       .  A
O1524      C1531   1.277       .  A
O1525      C1532   1.264       .  A
O1526      C1533   1.261       .  A
O1527      C1533   1.276       .  A
C1528      C1665   1.480       .  S
C1529      C1663   1.476       .  S
C1530      C1668   1.486       .  S
C1531      C1777   1.466       .  S
C1532      C1789   1.476       .  S
C1533      C1801   1.477       .  S
C1534      H1535   1.112       .  S
C1534      C1540   1.534       .  S
C1534      C1539   1.539       .  S
C1534      C1538   1.531       .  S
C1536      H1537   1.113       .  S
C1536      C1542   1.527       .  S
C1536      C1541   1.527       .  S
C1536      C1543   1.532       .  S
C1538      C1541   1.365       .  D
C1538      C1741   1.481       .  S
C1539      C1542   1.372       .  D
C1539      C1753   1.472       .  S
C1540      C1543   1.372       .  D
C1540      C1768   1.475       .  S
C1541      C1780   1.465       .  S
C1542      C1792   1.479       .  S
C1543      C1804   1.478       .  S
Zn1544     O1548   1.919       .  S
Zn1544     O1549   2.033       .  S
Zn1544     O1553   2.038       .  S
Zn1544     O1560   2.037       .  S
Zn1545     O1548   1.913       .  S
Zn1545     O1550   2.045       .  S
Zn1545     O1552   2.037       .  S
Zn1545     O1556   2.041       .  S
Zn1546     O1548   1.885       .  S
Zn1546     O1551   1.935       .  S
Zn1546     O1554   1.960       .  S
Zn1546     O1557   1.947       .  S
Zn1547     O1548   1.917       .  S
Zn1547     O1555   2.049       .  S
Zn1547     O1558   2.059       .  S
Zn1547     O1559   2.058       .  S
O1549      C1561   1.279       .  A
O1550      C1562   1.277       .  A
O1551      C1563   1.258       .  A
O1552      C1561   1.280       .  A
O1553      C1563   1.277       .  A
O1554      C1562   1.262       .  A
O1555      C1564   1.277       .  A
O1556      C1565   1.281       .  A
O1557      C1564   1.265       .  A
O1558      C1565   1.283       .  A
O1559      C1566   1.282       .  A
O1560      C1566   1.279       .  A
C1561      C1644   1.474       .  S
C1562      C1765   1.471       .  S
C1563      C1744   1.469       .  S
C1564      C1756   1.481       .  S
C1565      C1640   1.482       .  S
C1566      C1645   1.481       .  S
Zn1567     O1571   1.919       .  S
Zn1567     O1572   2.023       .  S
Zn1567     O1576   2.018       .  S
Zn1567     O1583   2.031       .  S
Zn1568     O1571   1.919       .  S
Zn1568     O1573   2.072       .  S
Zn1568     O1575   2.051       .  S
Zn1568     O1579   2.069       .  S
Zn1569     O1571   1.918       .  S
Zn1569     O1574   2.062       .  S
Zn1569     O1577   2.043       .  S
Zn1569     O1580   2.044       .  S
Zn1570     O1571   1.874       .  S
Zn1570     O1578   1.946       .  S
Zn1570     O1581   1.954       .  S
Zn1570     O1582   1.945       .  S
O1572      C1584   1.278       .  A
O1573      C1585   1.285       .  A
O1574      C1586   1.283       .  A
O1575      C1584   1.283       .  A
O1576      C1586   1.277       .  A
O1577      C1585   1.281       .  A
O1578      C1587   1.262       .  A
O1579      C1588   1.278       .  A
O1580      C1587   1.276       .  A
O1581      C1588   1.263       .  A
O1582      C1589   1.263       .  A
O1583      C1589   1.272       .  A
C1584      C1666   1.474       .  S
C1585      C1667   1.485       .  S
C1586      C1664   1.478       .  S
C1587      C1729   1.470       .  S
C1588      C1705   1.474       .  S
C1589      C1720   1.470       .  S
C1590      H1591   1.113       .  S
C1590      C1596   1.526       .  S
C1590      C1595   1.527       .  S
C1590      C1594   1.527       .  S
C1592      H1593   1.112       .  S
C1592      C1598   1.531       .  S
C1592      C1597   1.534       .  S
C1592      C1599   1.527       .  S
C1594      C1597   1.371       .  D
C1594      C1717   1.474       .  S
C1595      C1598   1.372       .  D
C1595      C1708   1.479       .  S
C1596      C1599   1.371       .  D
C1596      C1732   1.464       .  S
C1597      C1669   1.471       .  S
C1598      C1681   1.475       .  S
C1599      C1696   1.477       .  S
Zn1600     O1604   1.918       .  S
Zn1600     O1605   2.053       .  S
Zn1600     O1609   2.040       .  S
Zn1600     O1616   2.064       .  S
Zn1601     O1604   1.927       .  S
Zn1601     O1606   2.060       .  S
Zn1601     O1608   2.064       .  S
Zn1601     O1612   2.053       .  S
Zn1602     O1604   1.880       .  S
Zn1602     O1607   1.954       .  S
Zn1602     O1610   1.949       .  S
Zn1602     O1613   1.936       .  S
Zn1603     O1604   1.927       .  S
Zn1603     O1611   2.040       .  S
Zn1603     O1614   2.060       .  S
Zn1603     O1615   2.060       .  S
O1605      C1617   1.282       .  A
O1606      C1618   1.275       .  A
O1607      C1619   1.262       .  A
O1608      C1617   1.283       .  A
O1609      C1619   1.277       .  A
O1610      C1618   1.263       .  A
O1611      C1620   1.275       .  A
O1612      C1621   1.282       .  A
O1613      C1620   1.261       .  A
O1614      C1621   1.282       .  A
O1615      C1622   1.281       .  A
O1616      C1622   1.282       .  A
C1617      C1643   1.477       .  S
C1618      C1693   1.481       .  S
C1619      C1684   1.469       .  S
C1620      C1672   1.474       .  S
C1621      C1642   1.476       .  S
C1622      C1641   1.481       .  S
Zn1623     O1929   1.976   1_566  S
Zn1623     O1628   2.039       .  S
Zn1623     O1632   2.008   1_556  S
Zn1623     O2545   2.049       .  S
Zn1624     O2533   1.980       .  S
Zn1624     O1629   2.014       .  S
Zn1624     O2541   2.030   1_554  S
Zn1625     O1627   1.990       .  S
Zn1625     O1636   2.096       .  S
Zn1626     O1627   1.975       .  S
Zn1626     O1634   1.997       .  S
Zn1626     O1637   2.019   1_554  S
O1628      C1640   1.276       .  A
O1629      C1641   1.271       .  A
O1630     Zn1927   2.087   1_565  S
O1630      C1642   1.283       .  A
O1631      C1640   1.275       .  A
O1632      C1642   1.271       .  A
O1633     Zn2531   2.096       .  S
O1633      C1641   1.283       .  A
O1634      C1643   1.269       .  A
O1635      C1644   1.275       .  A
O1636      C1643   1.283       .  A
O1637      C1644   1.273       .  A
O1638      C1645   1.275       .  A
O1639      C1645   1.277       .  A
Zn1646     O1650   1.992       .  S
Zn1646     O2557   2.080       .  S
Zn1646     O1655   2.100       .  S
Zn1646     O1964   2.096   1_565  S
Zn1647     O1654   2.008       .  S
Zn1648     O1650   1.981       .  S
Zn1648     O1653   2.001       .  S
Zn1648     O1656   2.029       .  S
Zn1649     O1660   2.049       .  S
Zn1649     O1661   2.029       .  S
O1650     Zn2553   1.977       .  S
O1650     Zn1951   1.976   1_565  S
O1651      C1663   1.283       .  A
O1652     Zn2553   2.037       .  S
O1652      C1664   1.276       .  A
O1653      C1665   1.269       .  A
O1654      C1663   1.271       .  A
O1655      C1665   1.283       .  A
O1656      C1664   1.273       .  A
O1657     Zn2555   2.038       .  S
O1657      C1666   1.277       .  A
O1658      C1667   1.276       .  A
O1659      C1666   1.273       .  A
O1660      C1667   1.278       .  A
O1661      C1668   1.273       .  A
O1662      C1668   1.283       .  A
C1669      C1670   1.403       .  A
C1669      C1674   1.409       .  A
C1670      C1671   1.390       .  A
C1670      H1679   1.083       .  S
C1671      S1675   1.803       .  S
C1672      C2577   1.413       .  A
C1672      C2579   1.409       .  A
C1673      C1674   1.396       .  A
C1674      S1676   1.801       .  S
S1676      H1677   1.398       .  S
H1678      S2581   1.405       .  S
H1680      C2579   1.084       .  S
C1681      C1682   1.401       .  A
C1681      C1686   1.410       .  A
C1682      H1691   1.083       .  S
C1683      C1684   1.416       .  A
C1683      S1687   1.801       .  S
C1685      C1686   1.392       .  A
C1685      H1692   1.083       .  S
C1686      S1688   1.801       .  S
S1687      H1690   1.407       .  S
S1688      H1689   1.407       .  S
C1693      C1694   1.408       .  A
C1693      C1698   1.414       .  A
C1694      C1695   1.397       .  A
C1694      H1703   1.084       .  S
C1695      C1696   1.411       .  A
C1695      S1699   1.800       .  S
C1696      C1697   1.403       .  A
C1697      C1698   1.396       .  A
C1697      H1704   1.084       .  S
C1698      S1700   1.802       .  S
S1699      H1702   1.395       .  S
S1700      H1701   1.408       .  S
C1705      C1706   1.405       .  A
C1706      H1715   1.083       .  S
C1707      C1708   1.409       .  A
C1708      C1709   1.403       .  A
C1709      C1710   1.399       .  A
C1709      H1716   1.082       .  S
C1710      S1712   1.808       .  S
S1712      H1713   1.407       .  S
C1717      C1718   1.402       .  A
C1717      C1722   1.409       .  A
C1718      C1719   1.388       .  A
C1718      H1727   1.084       .  S
C1719      S1723   1.801       .  S
C1720      C2625   1.412       .  A
C1720      C1721   1.406       .  A
C1721      C2628   1.399       .  A
C1721      H1728   1.083       .  S
C1722      S1724   1.803       .  S
S1724      H1725   1.407       .  S
H1726      S2629   1.407       .  S
C1729      C1730   1.407       .  A
C1729      C1734   1.411       .  A
C1730      C1731   1.398       .  A
C1730      H1739   1.084       .  S
C1731      C1732   1.408       .  A
C1731      S1735   1.806       .  S
C1732      C1733   1.403       .  A
C1733      C1734   1.393       .  A
C1733      H1740   1.083       .  S
C1734      S1736   1.811       .  S
S1735      H1738   1.401       .  S
S1736      H1737   1.407       .  S
C1741      C1742   1.401       .  A
C1741      C1746   1.408       .  A
C1742      C1743   1.401       .  A
C1742      H1751   1.083       .  S
C1743      C2650   1.419       .  A
C1743      S2653   1.803       .  S
C1745      C2650   1.398       .  A
C1745      C1746   1.390       .  A
C1745      H2658   1.083       .  S
C1746      S1748   1.795       .  S
S1747      H1750   1.407       .  S
S1748      H1749   1.407       .  S
C1753      C1754   1.400       .  A
C1753      C1758   1.410       .  A
C1754      C1755   1.389       .  A
C1754      H1763   1.081       .  S
C1755      S1759   1.804       .  S
C1756      C1757   1.411       .  A
C1757      H1764   1.083       .  S
C1758      S1760   1.805       .  S
S1759      H1762   1.406       .  S
S1760      H1761   1.404       .  S
C1765      C1766   1.397       .  A
C1765      C1770   1.417       .  A
C1766      C1767   1.389       .  A
C1766      H1775   1.085       .  S
C1767      C1768   1.412       .  A
C1767      S1771   1.797       .  S
C1768      C1769   1.402       .  A
C1769      C1770   1.403       .  A
C1769      H1776   1.084       .  S
C1770      S1772   1.803       .  S
S1771      H1774   1.402       .  S
S1772      H1773   1.407       .  S
C1777      C1782   1.415       .  A
C1778      C2683   1.400       .  A
C1778      C1779   1.393       .  A
C1778      H1787   1.083       .  S
C1779      C1780   1.406       .  A
C1779      S1783   1.802       .  S
C1780      C1781   1.400       .  A
C1781      C2688   1.398       .  A
C1781      H1788   1.084       .  S
C1782      S1784   1.802       .  S
S1783      H1786   1.407       .  S
S1784      H1785   1.406       .  S
C1789      C1790   1.409       .  A
C1790      H1799   1.083       .  S
C1791      C1792   1.408       .  A
C1791      S1795   1.807       .  S
C1792      C1793   1.402       .  A
C1793      C1794   1.397       .  A
C1793      H1800   1.082       .  S
C1794      S1796   1.810       .  S
S1795      H1798   1.406       .  S
S1796      H1797   1.406       .  S
C1801      C1802   1.411       .  A
C1801      C1806   1.411       .  A
C1802      C1803   1.402       .  A
C1802      H1811   1.082       .  S
C1803      C1804   1.405       .  A
C1803      S1807   1.802       .  S
C1804      C1805   1.403       .  A
C1805      C1806   1.390       .  A
C1805      H1812   1.079       .  S
C1806      S1808   1.803       .  S
S1807      H1810   1.406       .  S
S1808      H1809   1.406       .  S
Zn1813     O1817   1.934       .  S
Zn1813     O1818   2.067       .  S
Zn1813     O1822   2.070       .  S
Zn1813     O1829   2.048       .  S
Zn1814     O1817   1.926       .  S
Zn1814     O1819   2.055       .  S
Zn1814     O1821   2.056       .  S
Zn1814     O1825   2.055       .  S
Zn1815     O1817   1.921       .  S
Zn1815     O1820   2.065       .  S
Zn1815     O1823   2.046       .  S
Zn1815     O1826   2.042       .  S
Zn1816     O1817   1.883       .  S
Zn1816     O1824   1.958       .  S
Zn1816     O1827   1.965       .  S
Zn1816     O1828   1.934       .  S
O1818      C1830   1.283       .  A
O1819      C1831   1.282       .  A
O1820      C1832   1.282       .  A
O1821      C1830   1.282       .  A
O1822      C1832   1.283       .  A
O1823      C1831   1.281       .  A
O1824      C1833   1.262       .  A
O1825      C1834   1.276       .  A
O1826      C1833   1.276       .  A
O1827      C1834   1.264       .  A
O1828      C1835   1.261       .  A
O1829      C1835   1.276       .  A
C1830      C1967   1.480       .  S
C1831      C1965   1.473       .  S
C1832      C1970   1.485       .  S
C1833      C2079   1.463       .  S
C1834      C2091   1.480       .  S
C1835      C2103   1.474       .  S
C1836      H1837   1.112       .  S
C1836      C1842   1.532       .  S
C1836      C1841   1.538       .  S
C1836      C1840   1.530       .  S
C1838      H1839   1.113       .  S
C1838      C1844   1.529       .  S
C1838      C1843   1.529       .  S
C1838      C1845   1.533       .  S
C1840      C1843   1.367       .  D
C1840      C2043   1.480       .  S
C1841      C1844   1.373       .  D
C1841      C2055   1.473       .  S
C1842      C1845   1.371       .  D
C1842      C2070   1.473       .  S
C1843      C2082   1.468       .  S
C1844      C2094   1.479       .  S
C1845      C2106   1.477       .  S
Zn1846     O1850   1.916       .  S
Zn1846     O1851   2.032       .  S
Zn1846     O1855   2.045       .  S
Zn1846     O1862   2.046       .  S
Zn1847     O1850   1.915       .  S
Zn1847     O1852   2.047       .  S
Zn1847     O1854   2.036       .  S
Zn1847     O1858   2.047       .  S
Zn1848     O1850   1.882       .  S
Zn1848     O1853   1.941       .  S
Zn1848     O1856   1.958       .  S
Zn1848     O1859   1.941       .  S
Zn1849     O1850   1.915       .  S
Zn1849     O1857   2.043       .  S
Zn1849     O1860   2.062       .  S
Zn1849     O1861   2.057       .  S
O1851      C1863   1.279       .  A
O1852      C1864   1.277       .  A
O1853      C1865   1.259       .  A
O1854      C1863   1.281       .  A
O1855      C1865   1.278       .  A
O1856      C1864   1.262       .  A
O1857      C1866   1.276       .  A
O1858      C1867   1.281       .  A
O1859      C1866   1.264       .  A
O1860      C1867   1.283       .  A
O1861      C1868   1.283       .  A
O1862      C1868   1.280       .  A
C1863      C1946   1.473       .  S
C1864      C2067   1.470       .  S
C1865      C2046   1.473       .  S
C1866      C2058   1.479       .  S
C1867      C1942   1.485       .  S
C1868      C1947   1.483       .  S
Zn1869     O1873   1.920       .  S
Zn1869     O1874   2.024       .  S
Zn1869     O1878   2.023       .  S
Zn1869     O1885   2.031       .  S
Zn1870     O1873   1.922       .  S
Zn1870     O1875   2.075       .  S
Zn1870     O1877   2.057       .  S
Zn1870     O1881   2.068       .  S
Zn1871     O1873   1.922       .  S
Zn1871     O1876   2.062       .  S
Zn1871     O1879   2.053       .  S
Zn1871     O1882   2.053       .  S
Zn1872     O1873   1.882       .  S
Zn1872     O1880   1.952       .  S
Zn1872     O1883   1.952       .  S
Zn1872     O1884   1.950       .  S
O1874      C1886   1.278       .  A
O1875      C1887   1.285       .  A
O1876      C1888   1.283       .  A
O1877      C1886   1.283       .  A
O1878      C1888   1.278       .  A
O1879      C1887   1.282       .  A
O1880      C1889   1.262       .  A
O1881      C1890   1.279       .  A
O1882      C1889   1.277       .  A
O1883      C1890   1.263       .  A
O1884      C1891   1.263       .  A
O1885      C1891   1.273       .  A
C1886      C1968   1.477       .  S
C1887      C1969   1.489       .  S
C1888      C1966   1.479       .  S
C1889      C2031   1.472       .  S
C1890      C2007   1.473       .  S
C1891      C2022   1.471       .  S
C1892      H1893   1.113       .  S
C1892      C1898   1.528       .  S
C1892      C1897   1.525       .  S
C1892      C1896   1.527       .  S
C1894      H1895   1.112       .  S
C1894      C1900   1.529       .  S
C1894      C1899   1.532       .  S
C1894      C1901   1.528       .  S
C1896      C1899   1.372       .  D
C1896      C2019   1.475       .  S
C1897      C1900   1.369       .  D
C1897      C2010   1.475       .  S
C1898      C1901   1.375       .  D
C1898      C2034   1.468       .  S
C1899      C1971   1.472       .  S
C1900      C1983   1.470       .  S
C1901      C1998   1.482       .  S
Zn1902     O1906   1.926       .  S
Zn1902     O1907   2.053       .  S
Zn1902     O1911   2.036       .  S
Zn1902     O1918   2.067       .  S
Zn1903     O1906   1.933       .  S
Zn1903     O1908   2.064       .  S
Zn1903     O1910   2.070       .  S
Zn1903     O1914   2.052       .  S
Zn1904     O1906   1.886       .  S
Zn1904     O1909   1.952       .  S
Zn1904     O1912   1.950       .  S
Zn1904     O1915   1.938       .  S
Zn1905     O1906   1.934       .  S
Zn1905     O1913   2.045       .  S
Zn1905     O1916   2.067       .  S
Zn1905     O1917   2.058       .  S
O1907      C1919   1.281       .  A
O1908      C1920   1.276       .  A
O1909      C1921   1.262       .  A
O1910      C1919   1.283       .  A
O1911      C1921   1.276       .  A
O1912      C1920   1.264       .  A
O1913      C1922   1.275       .  A
O1914      C1923   1.282       .  A
O1915      C1922   1.261       .  A
O1916      C1923   1.283       .  A
O1917      C1924   1.281       .  A
O1918      C1924   1.282       .  A
C1919      C1945   1.480       .  S
C1920      C1995   1.485       .  S
C1921      C1986   1.466       .  S
C1922      C1974   1.476       .  S
C1923      C1944   1.478       .  S
C1924      C1943   1.482       .  S
Zn1925     O1930   2.045       .  S
Zn1925     O1934   2.013   1_556  S
Zn1926     O1931   2.011       .  S
Zn1926     O2537   2.038   1_544  S
Zn1927     O1929   1.990       .  S
Zn1927     O1938   2.096       .  S
Zn1928     O1929   1.976       .  S
Zn1928     O1936   2.005       .  S
Zn1928     O1939   2.017   1_554  S
Zn1928     O2544   2.032   1_544  S
O1930      C1942   1.277       .  A
O1931      C1943   1.270       .  A
O1932      C1944   1.282       .  A
O1933     Zn2228   2.044   1_556  S
O1933      C1942   1.276       .  A
O1934      C1944   1.272       .  A
O1935      C1943   1.284       .  A
O1936      C1945   1.269       .  A
O1937      C1946   1.276       .  A
O1938      C1945   1.283       .  A
O1939      C1946   1.274       .  A
O1940     Zn2230   2.033   1_556  S
O1940      C1947   1.274       .  A
O1941      C1947   1.277       .  A
Zn1948     O1952   1.991       .  S
Zn1948     O1957   2.097       .  S
Zn1949     O1956   2.005       .  S
Zn1949     O2262   2.050       .  S
Zn1950     O1952   1.982       .  S
Zn1950     O1955   2.005       .  S
Zn1950     O1958   2.033       .  S
Zn1950     O2263   2.018       .  S
Zn1951     O1962   2.055       .  S
Zn1951     O1963   2.026       .  S
O1953      C1965   1.282       .  A
O1954      C1966   1.276       .  A
O1955      C1967   1.270       .  A
O1956      C1965   1.271       .  A
O1957      C1967   1.283       .  A
O1958      C1966   1.274       .  A
O1959      C1968   1.278       .  A
O1960     Zn2553   2.051   1_545  S
O1960      C1969   1.276       .  A
O1961     Zn2554   2.018   1_545  S
O1961      C1968   1.273       .  A
O1962      C1969   1.278       .  A
O1963      C1970   1.273       .  A
O1964      C1970   1.283       .  A
C1971      C1972   1.403       .  A
C1971      C1976   1.409       .  A
C1972      C1973   1.390       .  A
C1972      H1981   1.083       .  S
C1973      S1977   1.803       .  S
C1975      C1976   1.397       .  A
C1976      S1978   1.802       .  S
S1978      H1979   1.397       .  S
C1983      C1984   1.400       .  A
C1983      C1988   1.409       .  A
C1984      C2287   1.398       .  A
C1984      H1993   1.084       .  S
C1985      C2588   1.398   1_545  A
C1985      C1986   1.415       .  A
C1985      S1989   1.802       .  S
C1986      C2591   1.398   1_545  A
C1987      C2288   1.399       .  A
C1987      C1988   1.393       .  A
C1987      H1994   1.083       .  S
C1988      S1990   1.802       .  S
S1989      H1992   1.407       .  S
S1990      H1991   1.407       .  S
C1995      C1996   1.409       .  A
C1995      C2000   1.415       .  A
C1996      C1997   1.397       .  A
C1996      H2005   1.084       .  S
C1997      C1998   1.411       .  A
C1997      S2001   1.798       .  S
C1998      C1999   1.405       .  A
C1999      C2000   1.397       .  A
C1999      H2006   1.083       .  S
C2000      S2002   1.801       .  S
S2001      H2004   1.396       .  S
S2002      H2003   1.407       .  S
C2007      C2008   1.405       .  A
C2007      C2616   1.411   1_545  A
C2008      C2613   1.402   1_545  A
C2008      H2017   1.083       .  S
C2009      C2310   1.403       .  A
C2009      C2010   1.409       .  A
C2009      S2315   1.803       .  S
C2010      C2011   1.401       .  A
C2011      C2012   1.397       .  A
C2011      H2018   1.082       .  S
C2012      C2309   1.410       .  A
C2012      S2014   1.808       .  S
S2013      C2613   1.803       .  S
S2013      H2620   1.407   1_565  S
S2014      H2015   1.407       .  S
H2016      S2315   1.407       .  S
C2019      C2020   1.404       .  A
C2019      C2024   1.407       .  A
C2020      C2021   1.395       .  A
C2020      H2029   1.082       .  S
C2021      S2025   1.810       .  S
C2022      C2023   1.407       .  A
C2023      H2030   1.083       .  S
C2024      S2026   1.803       .  S
S2026      H2027   1.406       .  S
C2031      C2032   1.408       .  A
C2031      C2036   1.410       .  A
C2032      C2033   1.401       .  A
C2032      H2041   1.084       .  S
C2033      C2034   1.410       .  A
C2033      S2037   1.807       .  S
C2034      C2035   1.403       .  A
C2035      C2036   1.393       .  A
C2035      H2042   1.082       .  S
C2036      S2038   1.810       .  S
S2037      H2040   1.399       .  S
S2038      H2039   1.407       .  S
C2043      C2044   1.400       .  A
C2043      C2048   1.409       .  A
C2044      C2045   1.400   1_655  A
C2044      H2053   1.083       .  S
C2047      C2048   1.392       .  A
C2048      S2050   1.797       .  S
S2049      H2052   1.407       .  S
S2050      H2051   1.406       .  S
C2055      C2056   1.401       .  A
C2055      C2060   1.410       .  A
C2056      C2057   1.389       .  A
C2056      H2065   1.080       .  S
C2057      C2662   1.413   1_545  A
C2057      S2061   1.803       .  S
C2058      C2359   1.413       .  A
C2058      C2059   1.411       .  A
C2059      C2362   1.400       .  A
C2059      H2066   1.083       .  S
C2060      C2663   1.400   1_545  A
C2060      S2062   1.804   1_545  S
S2061      H2064   1.407   1_545  S
S2062      H2063   1.404   1_565  S
C2067      C2068   1.397       .  A
C2067      C2072   1.416       .  A
C2068      C2069   1.389       .  A
C2068      H2077   1.085       .  S
C2069      C2070   1.412       .  A
C2069      S2073   1.798       .  S
C2070      C2071   1.401       .  A
C2071      C2072   1.402       .  A
C2071      H2078   1.084       .  S
C2072      S2074   1.803       .  S
S2073      H2076   1.401       .  S
S2074      H2075   1.407       .  S
C2079      C2084   1.414       .  A
C2080      C2081   1.394       .  A
C2080      H2089   1.083   1_655  S
C2081      C2082   1.406       .  A
C2081      S2085   1.802       .  S
C2082      C2083   1.401       .  A
C2083      H2090   1.084       .  S
C2084      S2086   1.802       .  S
S2085      H2088   1.406       .  S
S2086      H2087   1.406       .  S
C2091      C2092   1.410       .  A
C2091      C2398   1.413       .  A
C2092      C2395   1.406       .  A
C2092      H2101   1.083       .  S
C2093      C2696   1.407   1_545  A
C2093      C2094   1.410       .  A
C2093      S2097   1.806       .  S
C2094      C2095   1.401       .  A
C2095      C2096   1.390       .  A
C2095      H2102   1.083       .  S
C2096      C2695   1.413   1_545  A
C2096      S2098   1.803       .  S
S2097      H2100   1.407   1_545  S
S2098      H2099   1.407   1_545  S
C2103      C2104   1.409       .  A
C2103      C2108   1.411       .  A
C2104      C2105   1.400       .  A
C2104      H2113   1.082       .  S
C2105      C2106   1.406       .  A
C2105      S2109   1.802       .  S
C2106      C2107   1.403       .  A
C2107      C2108   1.390       .  A
C2107      H2114   1.081       .  S
C2108      S2110   1.803       .  S
S2109      H2112   1.406       .  S
S2110      H2111   1.406       .  S
Zn2115     O2119   1.933       .  S
Zn2115     O2120   2.071       .  S
Zn2115     O2124   2.072       .  S
Zn2115     O2131   2.051       .  S
Zn2116     O2119   1.926       .  S
Zn2116     O2121   2.058       .  S
Zn2116     O2123   2.055       .  S
Zn2116     O2127   2.051       .  S
Zn2117     O2119   1.922       .  S
Zn2117     O2122   2.065       .  S
Zn2117     O2125   2.049       .  S
Zn2117     O2128   2.049       .  S
Zn2118     O2119   1.882       .  S
Zn2118     O2126   1.959       .  S
Zn2118     O2129   1.960       .  S
Zn2118     O2130   1.936       .  S
O2120      C2132   1.283       .  A
O2121      C2133   1.282       .  A
O2122      C2134   1.282       .  A
O2123      C2132   1.281       .  A
O2124      C2134   1.283       .  A
O2125      C2133   1.281       .  A
O2126      C2135   1.262       .  A
O2127      C2136   1.276       .  A
O2128      C2135   1.277       .  A
O2129      C2136   1.264       .  A
O2130      C2137   1.261       .  A
O2131      C2137   1.276       .  A
C2132      C2269   1.480       .  S
C2133      C2267   1.475       .  S
C2134      C2272   1.484       .  S
C2135      C2381   1.466       .  S
C2136      C2393   1.477       .  S
C2137      C2405   1.475       .  S
C2138      H2139   1.112       .  S
C2138      C2144   1.532       .  S
C2138      C2143   1.538       .  S
C2138      C2142   1.531       .  S
C2140      H2141   1.113       .  S
C2140      C2146   1.529       .  S
C2140      C2145   1.527       .  S
C2140      C2147   1.533       .  S
C2142      C2145   1.366       .  D
C2142      C2345   1.480       .  S
C2143      C2146   1.374       .  D
C2143      C2357   1.474       .  S
C2144      C2147   1.372       .  D
C2144      C2372   1.476       .  S
C2145      C2384   1.469       .  S
C2146      C2396   1.480       .  S
C2147      C2408   1.477       .  S
Zn2148     O2152   1.914       .  S
Zn2148     O2153   2.032       .  S
Zn2148     O2157   2.038       .  S
Zn2148     O2164   2.037       .  S
Zn2149     O2152   1.913       .  S
Zn2149     O2154   2.048       .  S
Zn2149     O2156   2.038       .  S
Zn2149     O2160   2.044       .  S
Zn2150     O2152   1.882       .  S
Zn2150     O2155   1.941       .  S
Zn2150     O2158   1.960       .  S
Zn2150     O2161   1.943       .  S
Zn2151     O2152   1.914       .  S
Zn2151     O2159   2.045       .  S
Zn2151     O2162   2.055       .  S
Zn2151     O2163   2.056       .  S
O2153      C2165   1.279       .  A
O2154      C2166   1.277       .  A
O2155      C2167   1.259       .  A
O2156      C2165   1.281       .  A
O2157      C2167   1.277       .  A
O2158      C2166   1.262       .  A
O2159      C2168   1.276       .  A
O2160      C2169   1.281       .  A
O2161      C2168   1.264       .  A
O2162      C2169   1.282       .  A
O2163      C2170   1.283       .  A
O2164      C2170   1.279       .  A
C2165      C2248   1.474       .  S
C2166      C2369   1.471       .  S
C2167      C2348   1.473       .  S
C2168      C2360   1.479       .  S
C2169      C2244   1.481       .  S
C2170      C2249   1.481       .  S
Zn2171     O2175   1.919       .  S
Zn2171     O2176   2.023       .  S
Zn2171     O2180   2.021       .  S
Zn2171     O2187   2.034       .  S
Zn2172     O2175   1.916       .  S
Zn2172     O2177   2.068       .  S
Zn2172     O2179   2.050       .  S
Zn2172     O2183   2.061       .  S
Zn2173     O2175   1.919       .  S
Zn2173     O2178   2.061       .  S
Zn2173     O2181   2.053       .  S
Zn2173     O2184   2.048       .  S
Zn2174     O2175   1.877       .  S
Zn2174     O2182   1.949       .  S
Zn2174     O2185   1.954       .  S
Zn2174     O2186   1.949       .  S
O2176      C2188   1.278       .  A
O2177      C2189   1.284       .  A
O2178      C2190   1.283       .  A
O2179      C2188   1.282       .  A
O2180      C2190   1.278       .  A
O2181      C2189   1.282       .  A
O2182      C2191   1.262       .  A
O2183      C2192   1.278       .  A
O2184      C2191   1.277       .  A
O2185      C2192   1.263       .  A
O2186      C2193   1.263       .  A
O2187      C2193   1.272       .  A
C2188      C2270   1.474       .  S
C2189      C2271   1.488       .  S
C2190      C2268   1.478       .  S
C2191      C2333   1.469       .  S
C2192      C2309   1.472       .  S
C2193      C2324   1.472       .  S
C2194      H2195   1.113       .  S
C2194      C2200   1.527       .  S
C2194      C2199   1.527       .  S
C2194      C2198   1.528       .  S
C2196      H2197   1.112       .  S
C2196      C2202   1.530       .  S
C2196      C2201   1.533       .  S
C2196      C2203   1.527       .  S
C2198      C2201   1.372       .  D
C2198      C2321   1.473       .  S
C2199      C2202   1.371       .  D
C2199      C2312   1.477       .  S
C2200      C2203   1.371       .  D
C2200      C2336   1.464       .  S
C2201      C2273   1.474       .  S
C2202      C2285   1.472       .  S
C2203      C2300   1.476       .  S
Zn2204     O2208   1.924       .  S
Zn2204     O2209   2.056       .  S
Zn2204     O2213   2.041       .  S
Zn2204     O2220   2.065       .  S
Zn2205     O2208   1.926       .  S
Zn2205     O2210   2.050       .  S
Zn2205     O2212   2.063       .  S
Zn2205     O2216   2.050       .  S
Zn2206     O2208   1.881       .  S
Zn2206     O2211   1.949       .  S
Zn2206     O2214   1.949       .  S
Zn2206     O2217   1.939       .  S
Zn2207     O2208   1.928       .  S
Zn2207     O2215   2.048       .  S
Zn2207     O2218   2.068       .  S
Zn2207     O2219   2.063       .  S
O2209      C2221   1.282       .  A
O2210      C2222   1.274       .  A
O2211      C2223   1.261       .  A
O2212      C2221   1.283       .  A
O2213      C2223   1.276       .  A
O2214      C2222   1.264       .  A
O2215      C2224   1.275       .  A
O2216      C2225   1.282       .  A
O2217      C2224   1.262       .  A
O2218      C2225   1.283       .  A
O2219      C2226   1.282       .  A
O2220      C2226   1.283       .  A
C2221      C2247   1.479       .  S
C2222      C2297   1.478       .  S
C2223      C2288   1.467       .  S
C2224      C2276   1.477       .  S
C2225      C2246   1.478       .  S
C2226      C2245   1.481       .  S
Zn2227     O2232   2.037   1_554  S
Zn2227     O2236   2.007       .  S
Zn2228     O2233   2.013       .  S
Zn2229     O2231   1.992       .  S
Zn2229     O2240   2.099       .  S
Zn2230     O2231   1.977       .  S
Zn2230     O2238   2.000       .  S
Zn2230     O2241   2.019   1_554  S
O2232      C2244   1.276       .  A
O2233      C2245   1.271       .  A
O2234      C2246   1.283       .  A
O2235     Zn2530   2.039   1_556  S
O2235      C2244   1.275       .  A
O2236      C2246   1.270       .  A
O2237      C2245   1.283       .  A
O2238      C2247   1.269       .  A
O2239      C2248   1.276       .  A
O2240      C2247   1.284       .  A
O2241      C2248   1.274       .  A
O2242     Zn2532   2.026   1_556  S
O2242      C2249   1.273       .  A
O2243      C2249   1.277       .  A
Zn2250     O2254   1.991       .  S
Zn2250     O2259   2.100       .  S
Zn2251     O2258   2.008       .  S
Zn2251     O2564   2.043       .  S
Zn2252     O2254   1.982       .  S
Zn2252     O2257   2.003       .  S
Zn2252     O2260   2.029       .  S
Zn2252     O2565   2.021       .  S
Zn2253     O2264   2.051       .  S
Zn2253     O2265   2.024       .  S
O2255      C2267   1.282       .  A
O2256      C2268   1.276       .  A
O2257      C2269   1.269       .  A
O2258      C2267   1.271       .  A
O2259      C2269   1.283       .  A
O2260      C2268   1.273       .  A
O2261      C2270   1.277       .  A
O2262      C2271   1.277       .  A
O2263      C2270   1.273       .  A
O2264      C2271   1.277       .  A
O2265      C2272   1.272       .  A
O2266      C2272   1.283       .  A
C2273      C2274   1.403       .  A
C2273      C2278   1.411       .  A
C2274      C2275   1.391       .  A
C2274      H2283   1.083       .  S
C2275      S2279   1.803       .  S
C2277      C2278   1.397       .  A
C2278      S2280   1.801       .  S
S2280      H2281   1.396       .  S
C2285      C2286   1.401       .  A
C2285      C2290   1.409       .  A
C2286      C2589   1.400       .  A
C2286      H2295   1.084       .  S
C2287      C2288   1.415       .  A
C2287      S2291   1.802       .  S
C2289      C2590   1.398       .  A
C2289      C2290   1.392       .  A
C2289      H2296   1.083       .  S
C2290      S2292   1.801       .  S
S2291      H2294   1.407       .  S
S2292      H2293   1.406       .  S
C2297      C2298   1.406       .  A
C2297      C2302   1.414       .  A
C2298      C2299   1.396       .  A
C2298      H2307   1.084       .  S
C2299      C2300   1.412       .  A
C2299      S2303   1.799       .  S
C2300      C2301   1.403       .  A
C2301      C2302   1.396       .  A
C2301      H2308   1.084       .  S
C2302      S2304   1.802       .  S
S2303      H2306   1.394       .  S
S2304      H2305   1.408       .  S
C2309      C2310   1.405       .  A
C2310      H2319   1.083       .  S
C2311      C2612   1.402       .  A
C2311      C2312   1.409       .  A
C2311      S2617   1.802       .  S
C2312      C2313   1.402       .  A
C2313      C2314   1.399       .  A
C2313      H2320   1.081       .  S
C2314      C2611   1.411       .  A
C2314      S2316   1.808       .  S
S2316      H2317   1.407       .  S
H2318      S2617   1.406       .  S
C2321      C2322   1.402       .  A
C2321      C2326   1.409       .  A
C2322      C2323   1.389       .  A
C2322      H2331   1.084       .  S
C2323      S2327   1.803       .  S
C2324      C2325   1.407       .  A
C2325      H2332   1.083       .  S
C2326      S2328   1.802       .  S
S2328      H2329   1.407       .  S
C2333      C2334   1.406       .  A
C2333      C2338   1.410       .  A
C2334      C2335   1.399       .  A
C2334      H2343   1.084       .  S
C2335      C2336   1.411       .  A
C2335      S2339   1.807       .  S
C2336      C2337   1.402       .  A
C2337      C2338   1.394       .  A
C2337      H2344   1.082       .  S
C2338      S2340   1.810       .  S
S2339      H2342   1.398       .  S
S2340      H2341   1.407       .  S
C2345      C2346   1.400       .  A
C2345      C2350   1.409       .  A
C2346      C2347   1.399   1_655  A
C2346      H2355   1.083       .  S
C2349      C2350   1.391       .  A
C2350      S2352   1.797       .  S
S2351      H2354   1.407       .  S
S2352      H2353   1.407       .  S
C2357      C2358   1.402       .  A
C2357      C2362   1.410       .  A
C2358      C2359   1.389       .  A
C2358      H2367   1.081       .  S
C2359      S2363   1.803       .  S
C2360      C2661   1.414       .  A
C2360      C2361   1.411       .  A
C2361      C2664   1.400       .  A
C2361      H2368   1.083       .  S
C2362      S2364   1.803       .  S
S2363      H2366   1.407       .  S
S2364      H2365   1.404       .  S
C2369      C2370   1.397       .  A
C2369      C2374   1.416       .  A
C2370      C2371   1.389       .  A
C2370      H2379   1.084       .  S
C2371      C2372   1.413       .  A
C2371      S2375   1.798       .  S
C2372      C2373   1.402       .  A
C2373      C2374   1.403       .  A
C2373      H2380   1.084       .  S
C2374      S2376   1.803       .  S
S2375      H2378   1.401       .  S
S2376      H2377   1.407       .  S
C2381      C2386   1.414       .  A
C2382      C2383   1.395       .  A
C2382      H2391   1.083   1_655  S
C2383      C2384   1.406       .  A
C2383      S2387   1.802       .  S
C2384      C2385   1.400       .  A
C2385      H2392   1.084       .  S
C2386      S2388   1.802       .  S
S2387      H2390   1.406       .  S
S2388      H2389   1.406       .  S
C2393      C2394   1.409       .  A
C2393      C2700   1.413       .  A
C2394      C2697   1.405       .  A
C2394      H2403   1.082       .  S
C2395      C2396   1.409       .  A
C2395      S2399   1.806       .  S
C2396      C2397   1.402       .  A
C2397      C2398   1.392       .  A
C2397      H2404   1.083       .  S
C2398      S2400   1.803       .  S
S2399      H2402   1.407       .  S
S2400      H2401   1.407       .  S
C2405      C2406   1.410       .  A
C2405      C2410   1.411       .  A
C2406      C2407   1.401       .  A
C2406      H2415   1.082       .  S
C2407      C2408   1.406       .  A
C2407      S2411   1.802       .  S
C2408      C2409   1.403       .  A
C2409      C2410   1.390       .  A
C2409      H2416   1.080       .  S
C2410      S2412   1.803       .  S
S2411      H2414   1.406       .  S
S2412      H2413   1.407       .  S
Zn2417     O2421   1.931       .  S
Zn2417     O2422   2.066       .  S
Zn2417     O2426   2.066       .  S
Zn2417     O2433   2.046       .  S
Zn2418     O2421   1.920       .  S
Zn2418     O2423   2.053       .  S
Zn2418     O2425   2.057       .  S
Zn2418     O2429   2.047       .  S
Zn2419     O2421   1.920       .  S
Zn2419     O2424   2.062       .  S
Zn2419     O2427   2.046       .  S
Zn2419     O2430   2.041       .  S
Zn2420     O2421   1.880       .  S
Zn2420     O2428   1.955       .  S
Zn2420     O2431   1.966       .  S
Zn2420     O2432   1.934       .  S
O2422      C2434   1.283       .  A
O2423      C2435   1.282       .  A
O2424      C2436   1.282       .  A
O2425      C2434   1.282       .  A
O2426      C2436   1.282       .  A
O2427      C2435   1.281       .  A
O2428      C2437   1.262       .  A
O2429      C2438   1.276       .  A
O2430      C2437   1.276       .  A
O2431      C2438   1.265       .  A
O2432      C2439   1.261       .  A
O2433      C2439   1.275       .  A
C2434      C2571   1.480       .  S
C2435      C2569   1.472       .  S
C2436      C2574   1.482       .  S
C2437      C2683   1.462       .  S
C2438      C2695   1.478       .  S
C2439      C2707   1.474       .  S
C2440      H2441   1.112       .  S
C2440      C2446   1.534       .  S
C2440      C2445   1.539       .  S
C2440      C2444   1.531       .  S
C2442      H2443   1.113       .  S
C2442      C2448   1.528       .  S
C2442      C2447   1.527       .  S
C2442      C2449   1.531       .  S
C2444      C2447   1.365       .  D
C2444      C2647   1.480       .  S
C2445      C2448   1.373       .  D
C2445      C2659   1.475       .  S
C2446      C2449   1.371       .  D
C2446      C2674   1.474       .  S
C2447      C2686   1.466       .  S
C2448      C2698   1.477       .  S
C2449      C2710   1.478       .  S
Zn2450     O2454   1.911       .  S
Zn2450     O2455   2.029       .  S
Zn2450     O2459   2.040       .  S
Zn2450     O2466   2.043       .  S
Zn2451     O2454   1.910       .  S
Zn2451     O2456   2.048       .  S
Zn2451     O2458   2.039       .  S
Zn2451     O2462   2.044       .  S
Zn2452     O2454   1.880       .  S
Zn2452     O2457   1.941       .  S
Zn2452     O2460   1.959       .  S
Zn2452     O2463   1.940       .  S
Zn2453     O2454   1.913       .  S
Zn2453     O2461   2.045       .  S
Zn2453     O2464   2.053       .  S
Zn2453     O2465   2.054       .  S
O2455      C2467   1.279       .  A
O2456      C2468   1.277       .  A
O2457      C2469   1.259       .  A
O2458      C2467   1.281       .  A
O2459      C2469   1.277       .  A
O2460      C2468   1.262       .  A
O2461      C2470   1.276       .  A
O2462      C2471   1.281       .  A
O2463      C2470   1.263       .  A
O2464      C2471   1.282       .  A
O2465      C2472   1.282       .  A
O2466      C2472   1.280       .  A
C2467      C2550   1.473       .  S
C2468      C2671   1.471       .  S
C2469      C2650   1.472       .  S
C2470      C2662   1.478       .  S
C2471      C2546   1.480       .  S
C2472      C2551   1.482       .  S
Zn2473     O2477   1.920       .  S
Zn2473     O2478   2.027       .  S
Zn2473     O2482   2.021       .  S
Zn2473     O2489   2.026       .  S
Zn2474     O2477   1.921       .  S
Zn2474     O2479   2.063       .  S
Zn2474     O2481   2.052       .  S
Zn2474     O2485   2.061       .  S
Zn2475     O2477   1.923       .  S
Zn2475     O2480   2.063       .  S
Zn2475     O2483   2.047       .  S
Zn2475     O2486   2.055       .  S
Zn2476     O2477   1.883       .  S
Zn2476     O2484   1.950       .  S
Zn2476     O2487   1.954       .  S
Zn2476     O2488   1.948       .  S
O2478      C2490   1.278       .  A
O2479      C2491   1.283       .  A
O2480      C2492   1.283       .  A
O2481      C2490   1.282       .  A
O2482      C2492   1.277       .  A
O2483      C2491   1.281       .  A
O2484      C2493   1.262       .  A
O2485      C2494   1.278       .  A
O2486      C2493   1.277       .  A
O2487      C2494   1.263       .  A
O2488      C2495   1.263       .  A
O2489      C2495   1.273       .  A
C2490      C2572   1.477       .  S
C2491      C2573   1.484       .  S
C2492      C2570   1.478       .  S
C2493      C2635   1.473       .  S
C2494      C2611   1.474       .  S
C2495      C2626   1.469       .  S
C2496      H2497   1.113       .  S
C2496      C2502   1.528       .  S
C2496      C2501   1.526       .  S
C2496      C2500   1.526       .  S
C2498      H2499   1.112       .  S
C2498      C2504   1.529       .  S
C2498      C2503   1.533       .  S
C2498      C2505   1.528       .  S
C2500      C2503   1.370       .  D
C2500      C2623   1.473       .  S
C2501      C2504   1.369       .  D
C2501      C2614   1.475       .  S
C2502      C2505   1.373       .  D
C2502      C2638   1.466       .  S
C2503      C2575   1.470       .  S
C2504      C2587   1.471       .  S
C2505      C2602   1.479       .  S
Zn2506     O2510   1.923       .  S
Zn2506     O2511   2.058       .  S
Zn2506     O2515   2.041       .  S
Zn2506     O2522   2.069       .  S
Zn2507     O2510   1.930       .  S
Zn2507     O2512   2.060       .  S
Zn2507     O2514   2.057       .  S
Zn2507     O2518   2.055       .  S
Zn2508     O2510   1.884       .  S
Zn2508     O2513   1.956       .  S
Zn2508     O2516   1.952       .  S
Zn2508     O2519   1.937       .  S
Zn2509     O2510   1.929       .  S
Zn2509     O2517   2.034       .  S
Zn2509     O2520   2.058       .  S
Zn2509     O2521   2.055       .  S
O2511      C2523   1.282       .  A
O2512      C2524   1.276       .  A
O2513      C2525   1.262       .  A
O2514      C2523   1.282       .  A
O2515      C2525   1.277       .  A
O2516      C2524   1.264       .  A
O2517      C2526   1.274       .  A
O2518      C2527   1.282       .  A
O2519      C2526   1.262       .  A
O2520      C2527   1.281       .  A
O2521      C2528   1.280       .  A
O2522      C2528   1.282       .  A
C2523      C2549   1.476       .  S
C2524      C2599   1.481       .  S
C2525      C2590   1.468       .  S
C2526      C2578   1.473       .  S
C2527      C2548   1.477       .  S
C2528      C2547   1.481       .  S
Zn2529     O2534   2.037   1_554  S
Zn2529     O2538   2.011       .  S
Zn2530     O2535   2.012       .  S
Zn2531     O2533   1.990       .  S
Zn2531     O2542   2.093       .  S
Zn2532     O2533   1.977       .  S
Zn2532     O2540   1.998       .  S
Zn2532     O2543   2.019   1_554  S
O2534      C2546   1.276       .  A
O2535      C2547   1.271       .  A
O2536      C2548   1.283       .  A
O2537      C2546   1.275       .  A
O2538      C2548   1.271       .  A
O2539      C2547   1.283       .  A
O2540      C2549   1.269       .  A
O2541      C2550   1.275       .  A
O2542      C2549   1.283       .  A
O2543      C2550   1.273       .  A
O2544      C2551   1.274       .  A
O2545      C2551   1.277       .  A
Zn2552     O2556   1.992       .  S
Zn2552     O2561   2.103       .  S
Zn2553     O2560   2.002       .  S
Zn2554     O2556   1.982       .  S
Zn2554     O2559   2.001       .  S
Zn2554     O2562   2.029       .  S
Zn2555     O2566   2.046       .  S
Zn2555     O2567   2.018       .  S
O2557      C2569   1.282       .  A
O2558      C2570   1.277       .  A
O2559      C2571   1.269       .  A
O2560      C2569   1.270       .  A
O2561      C2571   1.284       .  A
O2562      C2570   1.273       .  A
O2563      C2572   1.278       .  A
O2564      C2573   1.276       .  A
O2565      C2572   1.273       .  A
O2566      C2573   1.277       .  A
O2567      C2574   1.271       .  A
O2568      C2574   1.283       .  A
C2575      C2576   1.402       .  A
C2575      C2580   1.410       .  A
C2576      C2577   1.389       .  A
C2576      H2585   1.083       .  S
C2577      S2581   1.803       .  S
C2579      C2580   1.397       .  A
C2580      S2582   1.802       .  S
S2582      H2583   1.396       .  S
C2587      C2588   1.401       .  A
C2587      C2592   1.410       .  A
C2588      H2597   1.084       .  S
C2589      C2590   1.415       .  A
C2589      S2593   1.802       .  S
C2591      C2592   1.393       .  A
C2591      H2598   1.084       .  S
C2592      S2594   1.802       .  S
S2593      H2596   1.407       .  S
S2594      H2595   1.406       .  S
C2599      C2600   1.408       .  A
C2599      C2604   1.413       .  A
C2600      C2601   1.398       .  A
C2600      H2609   1.084       .  S
C2601      C2602   1.412       .  A
C2601      S2605   1.800       .  S
C2602      C2603   1.404       .  A
C2603      C2604   1.396       .  A
C2603      H2610   1.083       .  S
C2604      S2606   1.802       .  S
S2605      H2608   1.393       .  S
S2606      H2607   1.408       .  S
C2611      C2612   1.405       .  A
C2612      H2621   1.083       .  S
C2613      C2614   1.408       .  A
C2614      C2615   1.402       .  A
C2615      C2616   1.399       .  A
C2615      H2622   1.082       .  S
C2616      S2618   1.808       .  S
S2618      H2619   1.407       .  S
C2623      C2624   1.403       .  A
C2623      C2628   1.408       .  A
C2624      C2625   1.391       .  A
C2624      H2633   1.084       .  S
C2625      S2629   1.801       .  S
C2626      C2627   1.407       .  A
C2627      H2634   1.083       .  S
C2628      S2630   1.802       .  S
S2630      H2631   1.406       .  S
C2635      C2636   1.408       .  A
C2635      C2640   1.411       .  A
C2636      C2637   1.399       .  A
C2636      H2645   1.083       .  S
C2637      C2638   1.409       .  A
C2637      S2641   1.806       .  S
C2638      C2639   1.403       .  A
C2639      C2640   1.395       .  A
C2639      H2646   1.081       .  S
C2640      S2642   1.810       .  S
S2641      H2644   1.400       .  S
S2642      H2643   1.407       .  S
C2647      C2648   1.401       .  A
C2647      C2652   1.408       .  A
C2648      C2649   1.401   1_655  A
C2648      H2657   1.083       .  S
C2651      C2652   1.390       .  A
C2652      S2654   1.796       .  S
S2653      H2656   1.407       .  S
S2654      H2655   1.406       .  S
C2659      C2660   1.401       .  A
C2659      C2664   1.411       .  A
C2660      C2661   1.390       .  A
C2660      H2669   1.083       .  S
C2661      S2665   1.803       .  S
C2662      C2663   1.411       .  A
C2663      H2670   1.083       .  S
C2664      S2666   1.804       .  S
S2665      H2668   1.406       .  S
S2666      H2667   1.404       .  S
C2671      C2672   1.397       .  A
C2671      C2676   1.417       .  A
C2672      C2673   1.388       .  A
C2672      H2681   1.085       .  S
C2673      C2674   1.412       .  A
C2673      S2677   1.798       .  S
C2674      C2675   1.402       .  A
C2675      C2676   1.403       .  A
C2675      H2682   1.084       .  S
C2676      S2678   1.803       .  S
S2677      H2680   1.401       .  S
S2678      H2679   1.407       .  S
C2683      C2688   1.413       .  A
C2684      C2685   1.393       .  A
C2684      H2693   1.083   1_655  S
C2685      C2686   1.405       .  A
C2685      S2689   1.802       .  S
C2686      C2687   1.400       .  A
C2687      H2694   1.084       .  S
C2688      S2690   1.803       .  S
S2689      H2692   1.406       .  S
S2690      H2691   1.407       .  S
C2695      C2696   1.409       .  A
C2696      H2705   1.083       .  S
C2697      C2698   1.408       .  A
C2697      S2701   1.806       .  S
C2698      C2699   1.401       .  A
C2699      C2700   1.391       .  A
C2699      H2706   1.083       .  S
C2700      S2702   1.803       .  S
S2701      H2704   1.407       .  S
S2702      H2703   1.407       .  S
C2707      C2708   1.409       .  A
C2707      C2712   1.411       .  A
C2708      C2709   1.400       .  A
C2708      H2717   1.082       .  S
C2709      C2710   1.407       .  A
C2709      S2713   1.802       .  S
C2710      C2711   1.404       .  A
C2711      C2712   1.390       .  A
C2711      H2718   1.080       .  S
C2712      S2714   1.803       .  S
S2713      H2716   1.406       .  S
S2714      H2715   1.407       .  S
