geometry optimzed in LAMMPS
_audit_creation_date              2020-11-30 
_audit_creation_method            'lammps2cif' 
_symmetry_space_group_name_H-M    'P1' 
_symmetry_Int_Tables_number       1 
_symmetry_cell_setting            triclinic 
loop_ 
_symmetry_equiv_pos_as_xyz 
  x,y,z 
_cell_length_a                    34.12836404 
_cell_length_b                    33.69093244771389 
_cell_length_c                    31.847966011989957 
_cell_angle_alpha                 90.2249076257356 
_cell_angle_beta                  90.52995558311761 
_cell_angle_gamma                 89.29769693744241 
loop_ 
_atom_site_label 
_atom_site_type_symbol 
_atom_site_fract_x 
_atom_site_fract_y 
_atom_site_fract_z 
_atom_site_charge 
O1          O  0.97503195  0.94343532  0.27959280    -0.73700
O2          O  0.04866406  0.03029726  0.27911732    -0.73800
O3          O  0.96942484  0.02373424  0.28436936    -0.73800
O4          O  0.05518594  0.95045821  0.27677103    -0.73900
O5          O  0.05082124  0.95125476  0.20733491    -0.73800
O6          O  0.96597412  0.02630064  0.21438165    -0.73800
O7          O  0.04479561  0.03011555  0.20935957    -0.73700
O8          O  0.97233385  0.94655967  0.20978730    -0.73800
Ni9        Ni  0.01221692  0.98673566  0.28261284     1.25400
Ni10       Ni  0.00830249  0.98859312  0.20788625     1.25400
C11         C  0.96052389  0.93191483  0.24416346     0.88500
C12         C  0.05892728  0.04423299  0.24335392     0.88400
C13         C  0.95377455  0.03720971  0.25067659     0.88400
C14         C  0.06820097  0.93956324  0.24097678     0.88600
O15         O  0.18962792  0.30443441  0.26710031    -0.80200
O16         O  0.25403451  0.17029045  0.14535425    -0.64900
O17         O  0.23117311  0.23784325  0.23783817    -1.11500
C18         C  0.33336605  0.31542959  0.18077979     1.06700
O19         O  0.31752184  0.17335498  0.15801813    -0.78100
O20         O  0.34732654  0.22056915  0.21848979    -0.65700
Ni21       Ni  0.17734308  0.25324138  0.24482530     1.34900
C22         C  0.33682956  0.23613053  0.25293181     0.85400
O23         O  0.20794567  0.16304008  0.21209113    -0.78600
O24         O  0.15717786  0.20284413  0.22666254    -0.88900
C25         C  0.28872412  0.15897767  0.13798018     0.85000
O26         O  0.17293534  0.27472239  0.18967777    -0.67100
O27         O  0.34587150  0.28275783  0.16536182    -0.86400
C28         C  0.17687039  0.25442964  0.15632167     0.85800
C29         C  0.17226722  0.16854676  0.22145058     1.07400
H30         H  0.26537208  0.25647232  0.14871151     0.39200
O31         O  0.27585132  0.24406662  0.17377818    -1.09000
O32         O  0.30633205  0.25770080  0.25670574    -0.65700
Ni33       Ni  0.26610680  0.27853294  0.21988845     1.26300
O34         O  0.19974868  0.22413845  0.15515537    -0.65900
O35         O  0.30123744  0.31860050  0.20072525    -0.78200
C36         C  0.22092248  0.32106326  0.27911385     0.85200
O37         O  0.25447623  0.31160166  0.26588410    -0.65400
Ni38       Ni  0.32909386  0.22882587  0.16245700     1.27400
Ni39       Ni  0.24147558  0.20333914  0.19164925     1.26100
H40         H  0.24061751  0.22563993  0.26346980     0.39800
O41         O  0.68276401  0.17811097  0.25636190    -0.80200
O42         O  0.83038560  0.23166053  0.15604587    -0.64900
O43         O  0.75759749  0.21296795  0.24388975    -1.11500
C44         C  0.69269508  0.32414317  0.18397974     1.06700
O45         O  0.83292492  0.29537970  0.17127622    -0.78100
O46         O  0.78343243  0.33082663  0.22986034    -0.65700
Ni47       Ni  0.73727963  0.16084321  0.25278356     1.34900
C48         C  0.76505235  0.32151035  0.26300483     0.85400
O49         O  0.82952146  0.17982034  0.21958344    -0.78600
O50         O  0.78950108  0.13872999  0.25335874    -0.88900
C51         C  0.84558209  0.26541117  0.15062028     0.85000
O52         O  0.73029203  0.14535005  0.19481833    -0.67100
O53         O  0.72615616  0.33425525  0.17033284    -0.86400
C54         C  0.74765405  0.15475567  0.16106974     0.85800
C55         C  0.82326299  0.14804727  0.23993318     1.07400
H56         H  0.74646667  0.25239910  0.15570099     0.39200
O57         O  0.75855015  0.26069100  0.18174510    -1.09000
O58         O  0.74295806  0.29131956  0.26441892    -0.65700
Ni59       Ni  0.72157580  0.25294617  0.22518472     1.26300
O60         O  0.77188202  0.18317205  0.16042716    -0.65900
O61         O  0.68634310  0.29249890  0.20437213    -0.78200
C62         C  0.67059879  0.20900830  0.27571551     0.85200
O63         O  0.68568152  0.24247568  0.26889765    -0.65400
Ni64       Ni  0.77850390  0.31279229  0.17243723     1.27400
Ni65       Ni  0.79449460  0.22045519  0.19990833     1.26100
H66         H  0.76961321  0.22140074  0.26990835     0.39800
O67         O  0.82538177  0.67598024  0.17152916    -0.80200
O68         O  0.68760195  0.74418155  0.26976919    -0.64900
O69         O  0.75501364  0.71682208  0.18135222    -1.11500
C70         C  0.82764022  0.82631602  0.23372960     1.06700
O71         O  0.68738604  0.80702323  0.24907229    -0.78100
O72         O  0.73571669  0.83637039  0.18969088    -0.65700
Ni73       Ni  0.77058022  0.66316116  0.17079087     1.34900
C74         C  0.75168687  0.82352081  0.15634346     0.85400
O75         O  0.68322909  0.68919937  0.20955637    -0.78600
O76         O  0.71678821  0.64661726  0.16822293    -0.88900
C77         C  0.67333495  0.77898909  0.27061821     0.85000
O78         O  0.77432876  0.64425271  0.22733517    -0.67100
O79         O  0.79499511  0.83961312  0.24754229    -0.86400
C80         C  0.76107969  0.65653496  0.26228376     0.85800
C81         C  0.68554432  0.65802517  0.18672278     1.07400
H82         H  0.77149232  0.75947127  0.26738914     0.39200
O83         O  0.75900342  0.76714837  0.24126069    -1.09000
O84         O  0.77299188  0.79220668  0.15615307    -0.65700
Ni85       Ni  0.79379056  0.75486576  0.19731265     1.26300
O86         O  0.74346153  0.69007094  0.26624871    -0.65900
O87         O  0.83180076  0.79301071  0.21503022    -0.78200
C88         C  0.83889184  0.70388273  0.14946219     0.85200
O89         O  0.82728381  0.73926026  0.15398269    -0.65400
Ni90       Ni  0.74180948  0.82114651  0.24748831     1.27400
Ni91       Ni  0.72096725  0.72815196  0.22622583     1.26100
H92         H  0.74207504  0.72593563  0.15598706     0.39800
O93         O  0.32735453  0.80720654  0.13319143    -0.80200
O94         O  0.26776043  0.67416119  0.25479959    -0.64900
O95         O  0.28963599  0.73940639  0.16148697    -1.11500
C96         C  0.18969587  0.81966631  0.22458958     1.06700
O97         O  0.20549748  0.67932425  0.23785498    -0.78100
O98         O  0.16901148  0.73310310  0.19001223    -0.65700
Ni99       Ni  0.34238472  0.75581888  0.15402355     1.34900
C100        C  0.17941863  0.73995148  0.15276394     0.85400
O101        O  0.31418299  0.66617313  0.18890915    -0.78600
O102        O  0.36398473  0.70523390  0.17152772    -0.88900
C103        C  0.23280028  0.66294931  0.25880638     0.85000
O104        O  0.34728796  0.77746835  0.20916409    -0.67100
O105        O  0.18186307  0.78989296  0.24758531    -0.86400
C106        C  0.34432708  0.75770585  0.24273034     0.85800
C107        C  0.34971288  0.67136797  0.17963137     1.07400
H108        H  0.25839385  0.76231659  0.24938398     0.39200
O109        O  0.24653154  0.74832636  0.22608177    -1.09000
O110        O  0.21286797  0.75369045  0.14383474    -0.65700
Ni111      Ni  0.25271073  0.77944736  0.17770971     1.26300
O112        O  0.32235672  0.72733674  0.24447788    -0.65900
O113        O  0.21564601  0.81899348  0.19590207    -0.78200
C114        C  0.29542642  0.82136492  0.11849438     0.85200
O115        O  0.26199463  0.80979136  0.12951653    -0.65400
Ni116      Ni  0.19513943  0.73495792  0.24280995     1.27400
Ni117      Ni  0.28048523  0.70662342  0.20861455     1.26100
H118        H  0.28092603  0.72601507  0.13625180     0.39800
O119        O  0.34776784  0.95895182  0.90122102    -0.73700
O120        O  0.34152620  0.03540663  0.98974250    -0.73800
O121        O  0.34141070  0.95594130  0.98512499    -0.73800
O122        O  0.34731139  0.03975650  0.90529948    -0.73900
O123        O  0.28188263  0.04053477  0.90084684    -0.73800
O124        O  0.27614705  0.95638803  0.97829178    -0.73800
O125        O  0.27623805  0.03545170  0.98452256    -0.73700
O126        O  0.28252171  0.96057914  0.89485997    -0.73800
Ni127      Ni  0.34696272  0.99755924  0.94535677     1.25400
Ni128      Ni  0.27692291  0.99834876  0.93920758     1.25400
C129        C  0.31599693  0.94611499  0.88474947     0.88500
C130        C  0.30782115  0.04713371  0.00239033     0.88400
C131        C  0.30767595  0.94275705  0.99482066     0.88400
C132        C  0.31512975  0.05447044  0.89100797     0.88600
O133        O  0.97788049  0.30823783  0.00508934    -0.73700
O134        O  0.05294722  0.30810384  0.91511106    -0.73800
O135        O  0.97323130  0.31035321  0.91939664    -0.73800
O136        O  0.05704620  0.30675485  0.00068585    -0.73900
O137        O  0.05673738  0.24056069  0.99871863    -0.73800
O138        O  0.97180883  0.24419870  0.91842173    -0.73800
O139        O  0.05121033  0.24196925  0.91340984    -0.73700
O140        O  0.97727190  0.24236245  0.00319768    -0.73800
Ni141      Ni  0.01535115  0.31072369  0.96004332     1.25400
Ni142      Ni  0.01432456  0.23996298  0.95833024     1.25400
C143        C  0.96533958  0.27517150  0.01940055     0.88500
C144        C  0.06401418  0.27481154  0.89915694     0.88400
C145        C  0.95837079  0.27789982  0.90593147     0.88400
C146        C  0.07013016  0.27315224  0.01366073     0.88600
O147        O  0.77030773  0.95103296  0.91416563    -0.73700
O148        O  0.77191742  0.03202456  0.00090204    -0.73800
O149        O  0.77258935  0.95085286  0.00013966    -0.73800
O150        O  0.77038429  0.03188153  0.91451135    -0.73900
O151        O  0.70517255  0.03381083  0.91677834    -0.73800
O152        O  0.70776739  0.94992594  0.00009723    -0.73800
O153        O  0.70678871  0.03108267  0.00268313    -0.73700
O154        O  0.70503892  0.95310509  0.91420993    -0.73800
Ni155      Ni  0.77360751  0.99147709  0.95744417     1.25400
Ni156      Ni  0.70395199  0.99201749  0.95855331     1.25400
C157        C  0.73722301  0.93931075  0.89938735     0.88500
C158        C  0.73941108  0.04452021  0.01659830     0.88400
C159        C  0.74071196  0.93637066  0.01429975     0.88400
C160        C  0.73746094  0.04589182  0.90107851     0.88600
O161        O  0.05051393  0.67640150  0.01215871    -0.73700
O162        O  0.97312643  0.66823885  0.92283150    -0.73800
O163        O  0.05173486  0.67722351  0.92798967    -0.73800
O164        O  0.97180349  0.66572037  0.00841266    -0.73900
O165        O  0.96222104  0.73147700  0.00867697    -0.73800
O166        O  0.04403461  0.74314601  0.92930866    -0.73800
O167        O  0.96590964  0.73409034  0.92395827    -0.73700
O168        O  0.04048365  0.74195264  0.01342134    -0.73800
Ni169      Ni  0.01199130  0.66946191  0.96784953     1.25400
Ni170      Ni  0.00275026  0.73995786  0.96898529     1.25400
C171        C  0.05854160  0.71097610  0.02685489     0.88500
C172        C  0.95756395  0.70030340  0.90798926     0.88400
C173        C  0.06105887  0.71174411  0.91549215     0.88400
C174        C  0.95402018  0.69671265  0.02179898     0.88600
O175        O  0.31792785  0.78300983  0.77066109    -0.80200
O176        O  0.24160542  0.69455074  0.62551799    -0.64900
O177        O  0.27168682  0.77713075  0.69939713    -1.11500
C178        C  0.17030881  0.73110486  0.78181524     1.06700
O179        O  0.17828345  0.70971510  0.63078678    -0.78100
O180        O  0.16386966  0.77544848  0.67686307    -0.65700
Ni181      Ni  0.32556894  0.78702912  0.71158765     1.34900
C182        C  0.17346758  0.80404787  0.70057989     0.85400
O183        O  0.29327581  0.75271506  0.61946776    -0.78600
O184        O  0.33602255  0.79233759  0.65340383    -0.88900
C185        C  0.20627532  0.69056989  0.61393254     0.85000
O186        O  0.34575744  0.73378423  0.70997622    -0.67100
O187        O  0.15321318  0.72927571  0.74613574    -0.86400
C188        C  0.33247852  0.70082743  0.69699331     0.85800
C189        C  0.32286746  0.77535702  0.62047331     1.07400
H190        H  0.23046514  0.69418721  0.71528171     0.39200
O191        O  0.22328651  0.72017074  0.70458261    -1.09000
O192        O  0.19973943  0.79972897  0.72887726    -0.65700
Ni193      Ni  0.23893507  0.75971769  0.74379123     1.26300
O194        O  0.29791175  0.69744617  0.68169046    -0.65900
O195        O  0.20619123  0.73976850  0.78632839    -0.78200
C196        C  0.29261662  0.80544721  0.78759697     0.85200
O197        O  0.25663461  0.79957809  0.78119116    -0.65400
Ni198      Ni  0.16890926  0.72033437  0.68916299     1.27400
Ni199      Ni  0.25844950  0.73557470  0.66181647     1.26100
H200        H  0.26090973  0.80144395  0.68784782     0.39800
O201        O  0.97360007  0.95486539  0.72982065    -0.73700
O202        O  0.05094455  0.03609171  0.72694455    -0.73800
O203        O  0.97116843  0.03499942  0.72885965    -0.73800
O204        O  0.05326875  0.95544186  0.72795733    -0.73900
O205        O  0.05147819  0.95434105  0.65841086    -0.73800
O206        O  0.97008542  0.03468911  0.65932928    -0.73800
O207        O  0.04985252  0.03403441  0.65739956    -0.73700
O208        O  0.97179561  0.95400882  0.65978399    -0.73800
Ni209      Ni  0.01240125  0.99538150  0.73087778     1.25400
Ni210      Ni  0.01069361  0.99424090  0.65629437     1.25400
C211        C  0.95947655  0.94167763  0.69517609     0.88500
C212        C  0.06374019  0.04825703  0.69160894     0.88400
C213        C  0.95652348  0.04801384  0.69423026     0.88400
C214        C  0.06628893  0.94164693  0.69305953     0.88600
O215        O  0.31855084  0.19403152  0.75187105    -0.80200
O216        O  0.24330457  0.32227793  0.63711455    -0.64900
O217        O  0.27585003  0.26374728  0.73252640    -1.11500
C218        C  0.17201315  0.17982498  0.69015907     1.06700
O219        O  0.18114944  0.32011749  0.65643802    -0.78100
O220        O  0.15501369  0.27407135  0.71982532    -0.65700
Ni221      Ni  0.32956325  0.24887073  0.74037712     1.34900
C222        C  0.16849029  0.26407410  0.75554324     0.85400
O223        O  0.29763898  0.33467758  0.69533581    -0.78600
O224        O  0.34555143  0.30225956  0.73039646    -0.88900
C225        C  0.20843514  0.33520663  0.63510043     0.85000
O226        O  0.34206847  0.23483400  0.68412895    -0.67100
O227        O  0.15830640  0.20947951  0.66964158    -0.86400
C228        C  0.32913768  0.24628432  0.64872423     0.85800
C229        C  0.33102405  0.33341604  0.71338993     1.07400
H230        H  0.23437491  0.23585783  0.65055785     0.39200
O231        O  0.22568408  0.25124916  0.67437051    -1.09000
O232        O  0.20182982  0.24725180  0.76061138    -0.65700
Ni233      Ni  0.23948070  0.22227380  0.72328139     1.26300
O234        O  0.29860174  0.26834505  0.64555044    -0.65900
O235        O  0.20344492  0.18078077  0.71193303    -0.78200
C236        C  0.29119861  0.18111145  0.77463306     0.85200
O237        O  0.25654446  0.19434294  0.77137944    -0.65400
Ni238      Ni  0.17197328  0.26423780  0.66382308     1.27400
Ni239      Ni  0.26152886  0.29319317  0.68397652     1.26100
H240        H  0.26805215  0.27898627  0.75693103     0.39800
O241        O  0.81440399  0.30748842  0.76830742    -0.80200
O242        O  0.68058153  0.24762689  0.64768414    -0.64900
O243        O  0.74282630  0.27050473  0.74462276    -1.11500
C244        C  0.82151385  0.16038393  0.69758894     1.06700
O245        O  0.68282213  0.18218187  0.65750613    -0.78100
O246        O  0.72506049  0.14996415  0.72489849    -0.65700
Ni247      Ni  0.76034301  0.32358800  0.75554084     1.34900
C248        C  0.73805295  0.15964899  0.76113103     0.85400
O249        O  0.67237809  0.30103711  0.71047400    -0.78600
O250        O  0.70805285  0.34545898  0.74652566    -0.88900
C251        C  0.66825491  0.21297054  0.63960433     0.85000
O252        O  0.77408785  0.33836707  0.69918843    -0.67100
O253        O  0.79082213  0.14941543  0.67755833    -0.86400
C254        C  0.75839153  0.32980351  0.66386215     0.85800
C255        C  0.67594942  0.33465370  0.72912504     1.07400
H256        H  0.76671702  0.23168856  0.65982820     0.39200
O257        O  0.75173045  0.22222587  0.68320489    -1.09000
O258        O  0.75706166  0.19155442  0.76767625    -0.65700
Ni259      Ni  0.78224351  0.23103509  0.73279993     1.26300
O260        O  0.73560198  0.30025974  0.65923512    -0.65900
O261        O  0.82235660  0.19240274  0.71908620    -0.78200
C262        C  0.82638512  0.27682407  0.78842590     0.85200
O263        O  0.81128523  0.24323870  0.78203071    -0.65400
Ni264      Ni  0.73745275  0.16867237  0.66953598     1.27400
Ni265      Ni  0.71151110  0.26122571  0.69574355     1.26100
H266        H  0.72803252  0.26219183  0.76886039     0.39800
O267        O  0.69063795  0.81611160  0.64646935    -0.80200
O268        O  0.82648085  0.74863424  0.76753545    -0.64900
O269        O  0.76011499  0.77427008  0.67336718    -1.11500
C270        C  0.68539553  0.66632646  0.72218206     1.06700
O271        O  0.82483395  0.68385660  0.75599772    -0.78100
O272        O  0.78152294  0.65647153  0.68804998    -0.65700
Ni273      Ni  0.74325940  0.82868107  0.66631920     1.34900
C274        C  0.76484447  0.66669070  0.65373513     0.85400
O275        O  0.83288167  0.79901108  0.70356497    -0.78600
O276        O  0.79424799  0.84912912  0.68181728    -0.88900
C277        C  0.83889055  0.71371977  0.77532240     0.85000
O278        O  0.72485652  0.83552579  0.72263937    -0.67100
O279        O  0.71754673  0.65327343  0.73775150    -0.86400
C280        C  0.74408811  0.82904664  0.75637603     0.85800
C281        C  0.82766254  0.83490181  0.69256941     1.07400
H282        H  0.74104386  0.73530470  0.76030401     0.39200
O283        O  0.75409113  0.72600571  0.73525305    -1.09000
O284        O  0.74285711  0.69743192  0.65101054    -0.65700
Ni285      Ni  0.72059325  0.73712095  0.68812623     1.26300
O286        O  0.77183124  0.80324457  0.75758198    -0.65900
O287        O  0.68160986  0.70006200  0.70458883    -0.78200
C288        C  0.67609797  0.78474168  0.63054097     0.85200
O289        O  0.68818222  0.75039402  0.64090205    -0.65400
Ni290      Ni  0.77023919  0.67173785  0.74502838     1.27400
Ni291      Ni  0.79379013  0.76273084  0.72046284     1.26100
H292        H  0.77305525  0.76572508  0.64790633     0.39800
O293        O  0.45313520  0.47664773  0.75164722    -0.73700
O294        O  0.53542754  0.55181235  0.75625683    -0.73800
O295        O  0.45564058  0.55640239  0.74828870    -0.73800
O296        O  0.53262321  0.47085139  0.75833787    -0.73900
O297        O  0.53767679  0.46910306  0.68902907    -0.73800
O298        O  0.46040668  0.55276087  0.67862452    -0.73800
O299        O  0.53995205  0.54916711  0.68644038    -0.73700
O300        O  0.45838448  0.47216852  0.68229025    -0.73800
Ni301      Ni  0.49406598  0.51406969  0.75611813     1.25400
Ni302      Ni  0.49920570  0.51078044  0.68165540     1.25400
C303        C  0.44229886  0.46158910  0.71662384     0.88500
C304        C  0.55161536  0.56244025  0.72212775     0.88400
C305        C  0.44509820  0.56829295  0.71152956     0.88400
C306        C  0.54810937  0.45566329  0.72509325     0.88600
O307        O  0.47022772  0.44484932  0.20920814    -0.73700
O308        O  0.54813582  0.52531260  0.21174636    -0.73800
O309        O  0.46955677  0.52432112  0.21224375    -0.73800
O310        O  0.54953078  0.44521439  0.20891974    -0.73900
O311        O  0.54765215  0.44574920  0.13882241    -0.73800
O312        O  0.47002641  0.52799522  0.14227087    -0.73800
O313        O  0.54902286  0.52645853  0.14229960    -0.73700
O314        O  0.46770941  0.44860484  0.13955682    -0.73800
Ni315      Ni  0.50946166  0.48468722  0.21296836     1.25400
Ni316      Ni  0.50866180  0.48708324  0.13815719     1.25400
C317        C  0.45466334  0.43473542  0.17409727     0.88500
C318        C  0.56125767  0.54003437  0.17771383     0.88400
C319        C  0.45714594  0.53955068  0.17787792     0.88400
C320        C  0.56206048  0.43284560  0.17346024     0.88600
O321        O  0.80266711  0.44897210  0.42037741    -0.73700
O322        O  0.80315982  0.53336486  0.50308530    -0.73800
O323        O  0.80240002  0.45199419  0.50665680    -0.73800
O324        O  0.80309106  0.53038151  0.41747210    -0.73900
O325        O  0.73782564  0.53123182  0.41708482    -0.73800
O326        O  0.73714823  0.45330997  0.50562536    -0.73800
O327        O  0.73821281  0.53405997  0.50293099    -0.73700
O328        O  0.73783569  0.45052709  0.41933689    -0.73800
Ni329      Ni  0.80512658  0.49106139  0.46194012     1.25400
Ni330      Ni  0.73552597  0.49227856  0.46122972     1.25400
C331        C  0.77019242  0.43587393  0.40542796     0.88500
C332        C  0.77078229  0.54792457  0.51685504     0.88400
C333        C  0.76953785  0.44010600  0.52116924     0.88400
C334        C  0.77036881  0.54363791  0.40256900     0.88600
O335        O  0.53981426  0.75690615  0.48976588    -0.73700
O336        O  0.46146313  0.75250796  0.40261561    -0.73800
O337        O  0.54023469  0.75537713  0.40527224    -0.73800
O338        O  0.46067147  0.75443687  0.48706407    -0.73900
O339        O  0.45499034  0.81993847  0.48359673    -0.73800
O340        O  0.53846792  0.82164747  0.40573461    -0.73800
O341        O  0.45998817  0.81864711  0.39931219    -0.73700
O342        O  0.53490211  0.82294722  0.49089488    -0.73800
Ni343      Ni  0.50066687  0.75248979  0.44636928     1.25400
Ni344      Ni  0.49705382  0.82323997  0.44507829     1.25400
C345        C  0.55059697  0.79053088  0.50447969     0.88500
C346        C  0.44839424  0.78472266  0.38607379     0.88400
C347        C  0.55205755  0.78872554  0.39167971     0.88400
C348        C  0.44311571  0.78665094  0.49738363     0.88600
O349        O  0.23672479  0.45914413  0.41818238    -0.73700
O350        O  0.22761772  0.54935309  0.48913809    -0.73800
O351        O  0.22839981  0.47017600  0.50134987    -0.73800
O352        O  0.23611342  0.53766839  0.40692372    -0.73900
O353        O  0.17106894  0.53735724  0.39870802    -0.73800
O354        O  0.16332516  0.46881371  0.49327836    -0.73800
O355        O  0.16243273  0.54848982  0.48169328    -0.73700
O356        O  0.17163440  0.45864283  0.40995699    -0.73800
Ni357      Ni  0.23451307  0.50405570  0.45433368     1.25400
Ni358      Ni  0.16468908  0.50327317  0.44576943     1.25400
C359        C  0.20572289  0.44486911  0.40149973     0.88500
C360        C  0.19367290  0.56413388  0.49631004     0.88400
C361        C  0.19478356  0.45779467  0.51235591     0.88400
C362        C  0.20503733  0.54857111  0.38729369     0.88600
O363        O  0.45425724  0.25146830  0.49653943    -0.73700
O364        O  0.53604438  0.24360610  0.41502490    -0.73800
O365        O  0.45730001  0.25174900  0.41138378    -0.73800
O366        O  0.53328582  0.24324762  0.50027140    -0.73900
O367        O  0.52881848  0.17726315  0.49828529    -0.73800
O368        O  0.45044165  0.18597770  0.41109202    -0.73800
O369        O  0.52958010  0.17785814  0.41267716    -0.73700
O370        O  0.44914177  0.18560942  0.49655181    -0.73800
Ni371      Ni  0.49539174  0.24980568  0.45586655     1.25400
Ni372      Ni  0.48924539  0.17929635  0.45469313     1.25400
C373        C  0.43831976  0.21987813  0.51026769     0.88500
C374        C  0.54612668  0.20961662  0.40013237     0.88400
C375        C  0.44175320  0.22030905  0.39626517     0.88400
C376        C  0.54385217  0.20891349  0.51368896     0.88600
C377        C  0.64414356  0.78821173  0.59815909    -0.04600
C378        C  0.65030771  0.77303995  0.55725087    -0.01700
C379        C  0.61986457  0.77423987  0.52682084     0.03200
C380        C  0.58296776  0.79138554  0.53650822    -0.04600
C381        C  0.57714600  0.80781900  0.57695184    -0.01700
C382        C  0.60753694  0.80608297  0.60768425     0.03200
C383        C  0.68859413  0.75735955  0.54592649     0.37900
C384        C  0.53932094  0.82497636  0.58752179     0.37900
C385        C  0.60067264  0.82138262  0.64961271     0.36300
C386        C  0.62682796  0.75835211  0.48507336     0.36300
N387        N  0.59523869  0.83346341  0.68315235    -0.38500
N388        N  0.63233997  0.74562105  0.45181250    -0.38500
N389        N  0.50907616  0.83856711  0.59594387    -0.38000
N390        N  0.71921282  0.74517218  0.53678192    -0.38000
C391        C  0.76842322  0.63983858  0.61571648    -0.04600
C392        C  0.80311558  0.61773198  0.60776581    -0.01700
C393        C  0.80400691  0.58781349  0.57613903     0.03200
C394        C  0.77083582  0.58094653  0.54966820    -0.04600
C395        C  0.73716919  0.60553715  0.55562485    -0.01700
C396        C  0.73540826  0.63328034  0.58916865     0.03200
C397        C  0.83840783  0.62606350  0.63182530     0.37900
C398        C  0.70389028  0.60314724  0.52702579     0.37900
C399        C  0.69819572  0.65300753  0.59767869     0.36300
C400        C  0.83902487  0.56327408  0.57244859     0.36300
N401        N  0.66829196  0.66818918  0.60443346    -0.38500
N402        N  0.86699749  0.54367687  0.56984641    -0.38500
N403        N  0.67724408  0.60169070  0.50434461    -0.38000
N404        N  0.86665596  0.63288537  0.65076632    -0.38000
C405        C  0.65108175  0.63978029  0.72343406    -0.04600
C406        C  0.65444304  0.60057764  0.70758246    -0.01700
C407        C  0.62189260  0.57534889  0.70776790     0.03200
C408        C  0.58576279  0.58895436  0.72385450    -0.04600
C409        C  0.58272163  0.62741155  0.74140976    -0.01700
C410        C  0.61514464  0.65304318  0.74052707     0.03200
C411        C  0.69111981  0.58618993  0.69007222     0.37900
C412        C  0.54624737  0.64067330  0.76017491     0.37900
C413        C  0.61178362  0.69275961  0.75797499     0.36300
C414        C  0.62597463  0.53474358  0.69269700     0.36300
N415        N  0.60922016  0.72450533  0.77177449    -0.38500
N416        N  0.62926049  0.50234257  0.68090964    -0.38500
N417        N  0.51726488  0.65118396  0.77545665    -0.38000
N418        N  0.72021390  0.57427946  0.67619536    -0.38000
C419        C  0.76429999  0.35767518  0.62715899    -0.04600
C420        C  0.75938430  0.39933755  0.63296073    -0.01700
C421        C  0.76086282  0.42580587  0.59842344     0.03200
C422        C  0.76863730  0.41162910  0.55750323    -0.04600
C423        C  0.77380845  0.37028674  0.55143266    -0.01700
C424        C  0.77116493  0.34346797  0.58579386     0.03200
C425        C  0.75083752  0.41526668  0.67433221     0.37900
C426        C  0.78059819  0.35528554  0.50936078     0.37900
C427        C  0.77575674  0.30121366  0.57840042     0.36300
C428        C  0.75321195  0.46785094  0.60490275     0.36300
N429        N  0.77931424  0.26747776  0.57231256    -0.38500
N430        N  0.74667968  0.50128267  0.61014301    -0.38500
N431        N  0.78587872  0.34355889  0.47565118    -0.38000
N432        N  0.74413413  0.42810668  0.70729107    -0.38000
C433        C  0.57424687  0.20622628  0.54746628    -0.04600
C434        C  0.61043918  0.18674351  0.54008486    -0.01700
C435        C  0.64064135  0.18765057  0.57085805     0.03200
C436        C  0.63511700  0.20858057  0.60902736    -0.04600
C437        C  0.59841529  0.22696086  0.61683003    -0.01700
C438        C  0.56795454  0.22519536  0.58649433     0.03200
C439        C  0.61715377  0.16713853  0.50009002     0.37900
C440        C  0.59173728  0.24732891  0.65636028     0.37900
C441        C  0.52955361  0.24170888  0.59595858     0.36300
C442        C  0.67804752  0.16850651  0.56237205     0.36300
N443        N  0.49873559  0.25436357  0.60356289    -0.38500
N444        N  0.70785553  0.15319117  0.55549241    -0.38500
N445        N  0.58624207  0.26365387  0.68783694    -0.38000
N446        N  0.62236327  0.15160941  0.46810618    -0.38000
C447        C  0.64163145  0.36373586  0.72944462    -0.04600
C448        C  0.63338730  0.38777648  0.76511221    -0.01700
C449        C  0.60245499  0.41656282  0.76435874     0.03200
C450        C  0.57908470  0.42257713  0.72763764    -0.04600
C451        C  0.58715069  0.39784941  0.69219480    -0.01700
C452        C  0.61847420  0.36966629  0.69285000     0.03200
C453        C  0.65729877  0.38370661  0.80281172     0.37900
C454        C  0.56318430  0.40067736  0.65441769     0.37900
C455        C  0.62877893  0.34900870  0.65431075     0.36300
C456        C  0.59574769  0.44058780  0.80156907     0.36300
N457        N  0.63730753  0.33296689  0.62345565    -0.38500
N458        N  0.59048279  0.45954402  0.83142715    -0.38500
N459        N  0.54428221  0.40273236  0.62412223    -0.38000
N460        N  0.67656560  0.38101082  0.83279101    -0.38000
C461        C  0.35260758  0.23509065  0.61005162    -0.04600
C462        C  0.38155824  0.20416514  0.61179790    -0.01700
C463        C  0.40866664  0.19861292  0.57884950     0.03200
C464        C  0.40735639  0.22329470  0.54315663    -0.04600
C465        C  0.37716179  0.25223195  0.53976349    -0.01700
C466        C  0.34965347  0.25770228  0.57242619     0.03200
C467        C  0.38437002  0.17770311  0.64757288     0.37900
C468        C  0.37428321  0.27669660  0.50237661     0.37900
C469        C  0.31872015  0.28711728  0.56656207     0.36300
C470        C  0.43960252  0.16883566  0.58310530     0.36300
N471        N  0.29400963  0.31035034  0.56083029    -0.38500
N472        N  0.46432100  0.14521944  0.58661929    -0.38500
N473        N  0.37208156  0.29636924  0.47271573    -0.38000
N474        N  0.38736885  0.15661798  0.67603878    -0.38000
C475        C  0.19955500  0.36850580  0.60700042    -0.04600
C476        C  0.17890187  0.36135372  0.56929606    -0.01700
C477        C  0.17603307  0.39123586  0.53873377     0.03200
C478        C  0.19291443  0.42866132  0.54650242    -0.04600
C479        C  0.21152595  0.43649988  0.58539565    -0.01700
C480        C  0.21498832  0.40630183  0.61560702     0.03200
C481        C  0.16248480  0.32249363  0.56108841     0.37900
C482        C  0.22738284  0.47548519  0.59414337     0.37900
C483        C  0.23450038  0.41397138  0.65545575     0.36300
C484        C  0.15860988  0.38228621  0.49807766     0.36300
N485        N  0.24998786  0.42013137  0.68726132    -0.38500
N486        N  0.14503706  0.37493933  0.46557208    -0.38500
N487        N  0.23999694  0.50658180  0.60111087    -0.38000
N488        N  0.14941350  0.29147353  0.55480437    -0.38000
C489        C  0.35505647  0.36970222  0.71525911    -0.04600
C490        C  0.37669342  0.37775357  0.75219092    -0.01700
C491        C  0.40603410  0.40654660  0.75213649     0.03200
C492        C  0.41115004  0.43099470  0.71644987    -0.04600
C493        C  0.38609248  0.42599324  0.68111462    -0.01700
C494        C  0.35917598  0.39453648  0.67991323     0.03200
C495        C  0.36801785  0.35705079  0.79092475     0.37900
C496        C  0.38697626  0.45369322  0.64633164     0.37900
C497        C  0.33665172  0.38748164  0.64181162     0.36300
C498        C  0.43179220  0.40926794  0.78858258     0.36300
N499        N  0.31885375  0.38246565  0.61119372    -0.38500
N500        N  0.45226390  0.41111220  0.81768529    -0.38500
N501        N  0.38731459  0.47592976  0.61872713    -0.38000
N502        N  0.36069253  0.34083535  0.82179127    -0.38000
C503        C  0.86177444  0.86193809  0.69343418    -0.04600
C504        C  0.85899205  0.89910380  0.71415723    -0.01700
C505        C  0.89128861  0.92472331  0.71528232     0.03200
C506        C  0.92675223  0.91337856  0.69597453    -0.04600
C507        C  0.92982709  0.87625025  0.67553866    -0.01700
C508        C  0.89730552  0.85077972  0.67384665     0.03200
C509        C  0.82301032  0.91126439  0.73465110     0.37900
C510        C  0.96671412  0.86390920  0.65700070     0.37900
C511        C  0.89991679  0.81390694  0.65029676     0.36300
C512        C  0.88749843  0.96352082  0.73505956     0.36300
N513        N  0.90189289  0.78456942  0.63136651    -0.38500
N514        N  0.88442852  0.99445627  0.75070661    -0.38500
N515        N  0.99618498  0.85389788  0.64244633    -0.38000
N516        N  0.79449305  0.92164170  0.75091509    -0.38000
C517        C  0.92304682  0.07842328  0.69462056    -0.04600
C518        C  0.91456289  0.10144318  0.73116738    -0.01700
C519        C  0.88249982  0.12881627  0.73180136     0.03200
C520        C  0.85770850  0.13385514  0.69611826    -0.04600
C521        C  0.86683266  0.11196204  0.65931818    -0.01700
C522        C  0.89867037  0.08445161  0.65860035     0.03200
C523        C  0.93867415  0.09748659  0.76876895     0.37900
C524        C  0.84410483  0.11852532  0.62114742     0.37900
C525        C  0.90518915  0.06180826  0.62038141     0.36300
C526        C  0.87495628  0.15125772  0.76998134     0.36300
N527        N  0.91013992  0.04395856  0.58971774    -0.38500
N528        N  0.86951494  0.16916292  0.80051599    -0.38500
N529        N  0.82605848  0.12380737  0.59069056    -0.38000
N530        N  0.95760441  0.09433622  0.79895217    -0.38000
C531        C  0.09482797  0.07934780  0.69013428    -0.04600
C532        C  0.10169584  0.10093285  0.65260257    -0.01700
C533        C  0.12989634  0.13104836  0.65197479     0.03200
C534        C  0.14911527  0.14266565  0.68931722    -0.04600
C535        C  0.14394128  0.12027955  0.72626686    -0.01700
C536        C  0.11813796  0.08790553  0.72622549     0.03200
C537        C  0.07935417  0.09364904  0.61437954     0.37900
C538        C  0.16408514  0.13107457  0.76500684     0.37900
C539        C  0.11663432  0.06327319  0.76347086     0.36300
C540        C  0.13998804  0.14945170  0.61236180     0.36300
N541        N  0.11591923  0.04379618  0.79330006    -0.38500
N542        N  0.14845192  0.16386821  0.58084293    -0.38500
N543        N  0.18008021  0.13950445  0.79593007    -0.38000
N544        N  0.06170302  0.08825657  0.58371744    -0.38000
C545        C  0.19717121  0.66213128  0.58038685    -0.04600
C546        C  0.17246992  0.62985765  0.58902250    -0.01700
C547        C  0.16959508  0.59840376  0.56021506     0.03200
C548        C  0.19092916  0.59965147  0.52265485    -0.04600
C549        C  0.21254231  0.63361027  0.51219477    -0.01700
C550        C  0.21574740  0.66490196  0.54122065     0.03200
C551        C  0.15196442  0.62760789  0.62862574     0.37900
C552        C  0.23167538  0.63615123  0.47176809     0.37900
C553        C  0.23790800  0.69996292  0.53084075     0.36300
C554        C  0.14724055  0.56342551  0.57068010     0.36300
N555        N  0.25535534  0.72804331  0.52246400    -0.38500
N556        N  0.12968223  0.53537119  0.57889812    -0.38500
N557        N  0.24686967  0.63822114  0.43952157    -0.38000
N558        N  0.13539410  0.62552573  0.66004743    -0.38000
C559        C  0.40816713  0.78490496  0.52495880    -0.04600
C560        C  0.39297695  0.81973638  0.54466142    -0.01700
C561        C  0.36113784  0.81709320  0.57208852     0.03200
C562        C  0.34595792  0.77973992  0.58225388    -0.04600
C563        C  0.35906421  0.74539499  0.56102572    -0.01700
C564        C  0.38929309  0.74800702  0.53173304     0.03200
C565        C  0.41087540  0.85824345  0.53918054     0.37900
C566        C  0.34387885  0.70656776  0.57170187     0.37900
C567        C  0.40081731  0.71196509  0.50953962     0.36300
C568        C  0.34443757  0.85282897  0.59081611     0.36300
N569        N  0.40975049  0.68314173  0.49198571    -0.38500
N570        N  0.33102871  0.88127594  0.60561170    -0.38500
N571        N  0.33213240  0.67557249  0.58024737    -0.38000
N572        N  0.42504716  0.88903980  0.53529393    -0.38000
C573        C  0.35998446  0.66541961  0.69853402    -0.04600
C574        C  0.34838287  0.62828352  0.71468811    -0.01700
C575        C  0.37607203  0.59661692  0.71921480     0.03200
C576        C  0.41543022  0.60126448  0.70661545    -0.04600
C577        C  0.42629801  0.63730919  0.68778225    -0.01700
C578        C  0.39903597  0.66916922  0.68404832     0.03200
C579        C  0.30806056  0.62262024  0.72697098     0.37900
C580        C  0.46591872  0.64176569  0.67241653     0.37900
C581        C  0.41116377  0.70550800  0.66382745     0.36300
C582        C  0.36376345  0.55870073  0.73557670     0.36300
N583        N  0.42106101  0.73435323  0.64763412    -0.38500
N584        N  0.35395431  0.52833855  0.74840769    -0.38500
N585        N  0.49746354  0.64510142  0.65998417    -0.38000
N586        N  0.27577205  0.61799522  0.73640564    -0.38000
C587        C  0.15133474  0.84300613  0.69675918    -0.04600
C588        C  0.13280123  0.85396191  0.65841469    -0.01700
C589        C  0.10577386  0.88622494  0.65673904     0.03200
C590        C  0.09824665  0.90992184  0.69296761    -0.04600
C591        C  0.12097876  0.90206252  0.72969857    -0.01700
C592        C  0.14579554  0.86812953  0.73217736     0.03200
C593        C  0.14153871  0.83219721  0.62008758     0.37900
C594        C  0.11994667  0.92915993  0.76525621     0.37900
C595        C  0.16379975  0.85849232  0.77239373     0.36300
C596        C  0.08541949  0.89394861  0.61734215     0.36300
N597        N  0.17772939  0.85118713  0.80474993    -0.38500
N598        N  0.06933195  0.89982436  0.58577677    -0.38500
N599        N  0.11975880  0.95055880  0.79377135    -0.38000
N600        N  0.14845685  0.81498013  0.58946448    -0.38000
C601        C  0.09118763  0.71481253  0.88333740    -0.04600
C602        C  0.12304963  0.74060342  0.88894242    -0.01700
C603        C  0.15082297  0.74447118  0.85687471     0.03200
C604        C  0.14616938  0.72287524  0.81895783    -0.04600
C605        C  0.11617561  0.69432322  0.81540739    -0.01700
C606        C  0.08842788  0.69080744  0.84714353     0.03200
C607        C  0.12786337  0.76218540  0.92818376     0.37900
C608        C  0.11427050  0.66744623  0.77965804     0.37900
C609        C  0.05641326  0.66305183  0.84183493     0.36300
C610        C  0.18403484  0.77031831  0.86343800     0.36300
N611        N  0.03108671  0.64079266  0.83771522    -0.38500
N612        N  0.21080035  0.79043599  0.86932359    -0.38500
N613        N  0.11260633  0.64586771  0.75136705    -0.38000
N614        N  0.13175984  0.77917522  0.95957499    -0.38000
C615        C  0.92961915  0.69951813  0.87144161    -0.04600
C616        C  0.89609545  0.67534967  0.87169612    -0.01700
C617        C  0.86661667  0.67990148  0.84032240     0.03200
C618        C  0.87102119  0.70756154  0.80726675    -0.04600
C619        C  0.90573982  0.72995462  0.80572946    -0.01700
C620        C  0.93473434  0.72604261  0.83756476     0.03200
C621        C  0.89113733  0.64683620  0.90517064     0.37900
C622        C  0.91216179  0.75662362  0.77092458     0.37900
C623        C  0.97049950  0.74877564  0.83484147     0.36300
C624        C  0.83053170  0.65791537  0.84378369     0.36300
N625        N  0.99907221  0.76677808  0.83263529    -0.38500
N626        N  0.80160806  0.64063088  0.84685074    -0.38500
N627        N  0.91769023  0.77787075  0.74321755    -0.38000
N628        N  0.88738346  0.62399267  0.93183754    -0.38000
C629        C  0.73636701  0.85456230  0.79507596    -0.04600
C630        C  0.75321267  0.84429806  0.83475128    -0.01700
C631        C  0.75384142  0.87202090  0.86837417     0.03200
C632        C  0.73588927  0.90972425  0.86412056    -0.04600
C633        C  0.71575129  0.91881311  0.82633800    -0.01700
C634        C  0.71594342  0.89171753  0.79210314     0.03200
C635        C  0.76886891  0.80467029  0.84212300     0.34700
C636        C  0.69616518  0.95711216  0.82184392     0.37900
C637        C  0.69573683  0.90334625  0.75368527     0.36300
C638        C  0.77237163  0.86127611  0.90797252     0.36300
N639        N  0.67945294  0.91293395  0.72325874    -0.38500
N640        N  0.78716586  0.85256110  0.93950044    -0.38500
N641        N  0.68064571  0.98765051  0.81808172    -0.38000
N642        N  0.78109883  0.77304411  0.84847752    -0.38000
C643        C  0.73677128  0.07532717  0.86555932    -0.04600
C644        C  0.72141092  0.11422863  0.87087217    -0.01700
C645        C  0.72122499  0.14180558  0.83704576     0.03200
C646        C  0.73448110  0.13027767  0.79669247    -0.04600
C647        C  0.74874627  0.09079108  0.79128740    -0.01700
C648        C  0.75134534  0.06426551  0.82571775     0.03200
C649        C  0.70727333  0.12636038  0.91178942     0.37900
C650        C  0.76186420  0.07731010  0.75035001     0.37900
C651        C  0.76976807  0.02556894  0.82009791     0.36300
C652        C  0.70682881  0.18193595  0.84368754     0.36300
N653        N  0.78496382  0.99497396  0.81556286    -0.38500
N654        N  0.69540097  0.21402402  0.84902898    -0.38500
N655        N  0.77192578  0.06609397  0.71773839    -0.38000
N656        N  0.69609558  0.13582865  0.94457702    -0.38000
C657        C  0.92436828  0.27921056  0.87621490    -0.04600
C658        C  0.88873599  0.26136557  0.88739639    -0.01700
C659        C  0.85652354  0.26170546  0.85920581     0.03200
C660        C  0.85970893  0.27935637  0.81907766    -0.04600
C661        C  0.89531527  0.29747500  0.80803089    -0.01700
C662        C  0.92724563  0.29800692  0.83675578     0.03200
C663        C  0.88476520  0.24373337  0.92865407     0.37900
C664        C  0.89993265  0.31358869  0.76623360     0.37900
C665        C  0.96348287  0.31696249  0.82517000     0.36300
C666        C  0.81971014  0.24460008  0.87209680     0.36300
N667        N  0.99232551  0.33224815  0.81594643    -0.38500
N668        N  0.79039884  0.23101455  0.88254755    -0.38500
N669        N  0.90365862  0.32610842  0.73273717    -0.38000
N670        N  0.88163298  0.22981152  0.96160361    -0.38000
C671        C  0.09082986  0.27377790  0.86243783    -0.04600
C672        C  0.12823726  0.29140546  0.86428313    -0.01700
C673        C  0.15386350  0.28863902  0.82951538     0.03200
C674        C  0.14195746  0.26889152  0.79236013    -0.04600
C675        C  0.10423420  0.25175475  0.79052786    -0.01700
C676        C  0.07907564  0.25390041  0.82536958     0.03200
C677        C  0.14087915  0.31118850  0.90248752     0.37900
C678        C  0.09138698  0.23065358  0.75308762     0.37900
C679        C  0.04070901  0.23576010  0.82278394     0.36300
C680        C  0.19211980  0.30677192  0.83168677     0.36300
N681        N  0.01023780  0.22113438  0.82067551    -0.38500
N682        N  0.22263293  0.32133463  0.83341598    -0.38500
N683        N  0.08079126  0.21394416  0.72334440    -0.38000
N684        N  0.15092097  0.32686849  0.93307302    -0.38000
C685        C  0.31511992  0.08884274  0.86320307    -0.04600
C686        C  0.29543468  0.12380989  0.87610591    -0.01700
C687        C  0.28831024  0.15439111  0.84720333     0.03200
C688        C  0.29978144  0.14944989  0.80501692    -0.04600
C689        C  0.31930588  0.11431319  0.79215896    -0.01700
C690        C  0.32843022  0.08468797  0.82173689     0.03200
C691        C  0.28179713  0.12802373  0.91900370     0.37900
C692        C  0.32603508  0.10664396  0.74796535     0.37900
C693        C  0.34974992  0.04913295  0.80910538     0.36300
C694        C  0.26859545  0.19061327  0.86084171     0.36300
N695        N  0.36709059  0.02093863  0.79919606    -0.38500
N696        N  0.25271464  0.21935087  0.87174900    -0.38500
N697        N  0.33037910  0.09974845  0.71268568    -0.38000
N698        N  0.27058146  0.13148916  0.95301961    -0.38000
C699        C  0.31718112  0.91180579  0.85596975    -0.04600
C700        C  0.33321796  0.87522425  0.87012763    -0.01700
C701        C  0.32639545  0.84016695  0.84709532     0.03200
C702        C  0.30434868  0.84189354  0.80961065    -0.04600
C703        C  0.29147173  0.87892315  0.79354549    -0.01700
C704        C  0.29732125  0.91375799  0.81704048     0.03200
C705        C  0.35428037  0.87305505  0.90985966     0.37900
C706        C  0.27214988  0.88117519  0.75275399     0.37900
C707        C  0.28235807  0.95150446  0.80148209     0.36300
C708        C  0.33973910  0.80211024  0.86329827     0.36300
N709        N  0.27028122  0.98152298  0.78904146    -0.38500
N710        N  0.35017318  0.77171142  0.87631744    -0.38500
N711        N  0.25696006  0.88300708  0.72016184    -0.38000
N712        N  0.37109841  0.87122199  0.94152733    -0.38000
C713        C  0.36916383  0.76887905  0.28022478    -0.04600
C714        C  0.35710654  0.75981803  0.32160707    -0.01700
C715        C  0.38259020  0.76609392  0.35623048     0.03200
C716        C  0.42004536  0.78227681  0.35037218    -0.04600
C717        C  0.43131206  0.79380019  0.30978649    -0.01700
C718        C  0.40661980  0.78633624  0.27479065     0.03200
C719        C  0.31834276  0.74424236  0.32910662     0.37900
C720        C  0.46905158  0.81229708  0.30376832     0.37900
C721        C  0.42169708  0.79373137  0.23308769     0.36300
C722        C  0.36967587  0.75694600  0.39828315     0.36300
N723        N  0.43406031  0.79925775  0.19992293    -0.38500
N724        N  0.35878512  0.74994064  0.43169122    -0.38500
N725        N  0.49895626  0.82735151  0.29885454    -0.38000
N726        N  0.28750623  0.73176426  0.33539443    -0.38000
C727        C  0.22331711  0.63167656  0.28882337    -0.04600
C728        C  0.24632484  0.59668827  0.29077047    -0.01700
C729        C  0.23901886  0.56843083  0.32188931     0.03200
C730        C  0.20896282  0.57536282  0.35138030    -0.04600
C731        C  0.18503241  0.60971342  0.34847072    -0.01700
C732        C  0.19204704  0.63774476  0.31705363     0.03200
C733        C  0.27735318  0.58953406  0.26065217     0.37900
C734        C  0.15506385  0.61784501  0.37955861     0.37900
C735        C  0.16850506  0.67398177  0.31558755     0.36300
C736        C  0.26261793  0.53227365  0.32356648     0.36300
N737        N  0.14976025  0.70282894  0.31437365    -0.38500
N738        N  0.28155990  0.50357185  0.32504214    -0.38500
N739        N  0.13131192  0.62454938  0.40439237    -0.38000
N740        N  0.30215940  0.58370423  0.23679008    -0.38000
C741        C  0.42848824  0.57214825  0.17954125    -0.04600
C742        C  0.39434857  0.57119903  0.15423154    -0.01700
C743        C  0.36811824  0.60364601  0.15455108     0.03200
C744        C  0.37621233  0.63691922  0.18006702    -0.04600
C745        C  0.40980891  0.63731158  0.20616055    -0.01700
C746        C  0.43598045  0.60500978  0.20583758     0.03200
C747        C  0.38585293  0.53663937  0.12849539     0.37900
C748        C  0.41734823  0.67044024  0.23419179     0.37900
C749        C  0.47129482  0.60636376  0.23164993     0.36300
C750        C  0.33338943  0.60323470  0.12788065     0.36300
N751        N  0.49929746  0.60762599  0.25235235    -0.38500
N752        N  0.30566444  0.60297677  0.10668174    -0.38500
N753        N  0.42429938  0.69620250  0.25705353    -0.38000
N754        N  0.37906892  0.50908283  0.10799252    -0.38000
C755        C  0.29767646  0.85282809  0.08731731    -0.04600
C756        C  0.28101946  0.84696762  0.04712176    -0.01700
C757        C  0.28405086  0.87669003  0.01671012     0.03200
C758        C  0.30469271  0.91165353  0.02630670    -0.04600
C759        C  0.32107931  0.91762246  0.06660562    -0.01700
C760        C  0.31757092  0.88811272  0.09717926     0.03200
C761        C  0.26234656  0.80968167  0.03647348     0.37900
C762        C  0.33988276  0.95483258  0.07721794     0.37900
C763        C  0.33359047  0.89439384  0.13904563     0.36300
C764        C  0.26641873  0.87101425  0.97544759     0.36300
N765        N  0.34632526  0.89931165  0.17244158    -0.38500
N766        N  0.25211228  0.86660839  0.94269107    -0.38500
N767        N  0.35466138  0.98457876  0.08570443    -0.38000
N768        N  0.24773923  0.77986438  0.02790446    -0.38000
C769        C  0.14967027  0.73307716  0.11908540    -0.04600
C770        C  0.11155415  0.74938601  0.12392785    -0.01700
C771        C  0.08141713  0.73989463  0.09526508     0.03200
C772        C  0.08949183  0.71627744  0.05957541    -0.04600
C773        C  0.12802896  0.70144256  0.05350118    -0.01700
C774        C  0.15777248  0.70890603  0.08376357     0.03200
C775        C  0.10337322  0.77715326  0.15782871     0.37900
C776        C  0.13754574  0.68018805  0.01516755     0.37900
C777        C  0.19622108  0.69070854  0.07918875     0.36300
C778        C  0.04171833  0.75378708  0.10327405     0.36300
N779        N  0.22678108  0.67585230  0.07568653    -0.38500
N780        N  0.01009069  0.76463830  0.11006386    -0.38500
N781        N  0.14510171  0.66368379  0.98428967    -0.38000
N782        N  0.09659830  0.79947562  0.18457294    -0.38000
C783        C  0.76413234  0.62836954  0.29901847    -0.04600
C784        C  0.77893513  0.64016288  0.33881322    -0.01700
C785        C  0.78213781  0.61236750  0.37233373     0.03200
C786        C  0.76959391  0.57274539  0.36691068    -0.04600
C787        C  0.75451470  0.56108271  0.32739047    -0.01700
C788        C  0.75184567  0.58845492  0.29381653     0.03200
C789        C  0.79150691  0.68068011  0.34515804     0.37900
C790        C  0.74239012  0.52032730  0.32089298     0.37900
C791        C  0.73505493  0.57542423  0.25410869     0.36300
C792        C  0.79790150  0.62460580  0.41270445     0.36300
N793        N  0.72163809  0.56472338  0.22259653    -0.38500
N794        N  0.81058495  0.63412316  0.44498398    -0.38500
N795        N  0.73284668  0.48783468  0.31555513    -0.38000
N796        N  0.80147020  0.71306485  0.35030336    -0.38000
C797        C  0.63949166  0.78657420  0.29719835    -0.04600
C798        C  0.64263635  0.81373279  0.33079150    -0.01700
C799        C  0.61373109  0.81475274  0.36178416     0.03200
C800        C  0.58143647  0.78910171  0.35853125    -0.04600
C801        C  0.57707074  0.76388036  0.32325216    -0.01700
C802        C  0.60604066  0.76292010  0.29240936     0.03200
C803        C  0.67636843  0.83941034  0.33446383     0.37900
C804        C  0.54270540  0.73918530  0.31826421     0.37900
C805        C  0.60108517  0.73831759  0.25522205     0.36300
C806        C  0.61852778  0.84041944  0.39818325     0.36300
N807        N  0.59678233  0.71906798  0.22539577    -0.38500
N808        N  0.62227779  0.86075292  0.42728503    -0.38500
N809        N  0.51540046  0.71944970  0.31414631    -0.38000
N810        N  0.70308108  0.86011115  0.33733341    -0.38000
C811        C  0.65079716  0.63184545  0.18385014    -0.04600
C812        C  0.63615833  0.61893615  0.14467138    -0.01700
C813        C  0.60567588  0.59083507  0.14247321     0.03200
C814        C  0.59101047  0.57310576  0.17971910    -0.04600
C815        C  0.60522738  0.58763037  0.21916181    -0.01700
C816        C  0.63413431  0.61723058  0.22096355     0.03200
C817        C  0.65211550  0.63519274  0.10637580     0.37900
C818        C  0.59112245  0.57231347  0.25873132     0.37900
C819        C  0.64800853  0.63147676  0.26156825     0.36300
C820        C  0.58926035  0.58142177  0.10148562     0.36300
N821        N  0.65891049  0.64295305  0.29387085    -0.38500
N822        N  0.57609641  0.57449074  0.06867592    -0.38500
N823        N  0.58029419  0.56035742  0.29055772    -0.38000
N824        N  0.66486222  0.64805269  0.07582112    -0.38000
C825        C  0.86712056  0.69575292  0.11634172    -0.04600
C826        C  0.90539901  0.68274511  0.12629726    -0.01700
C827        C  0.93368993  0.68079238  0.09453842     0.03200
C828        C  0.92353865  0.69257846  0.05330975    -0.04600
C829        C  0.88475768  0.70370504  0.04306528    -0.01700
C830        C  0.85656423  0.70562384  0.07466994     0.03200
C831        C  0.91639505  0.67488728  0.16962590     0.37900
C832        C  0.87394945  0.71362726  0.00013163     0.37900
C833        C  0.81705027  0.71945114  0.06467746     0.36300
C834        C  0.97365177  0.66891565  0.10475272     0.36300
N835        N  0.78570272  0.73092791  0.05699042    -0.38500
N836        N  0.00550234  0.65944170  0.11300327    -0.38500
N837        N  0.86501735  0.72153261  0.96600682    -0.38000
N838        N  0.92510971  0.66914304  0.20429903    -0.38000
C839        C  0.74714860  0.84770383  0.11646539    -0.04600
C840        C  0.71139664  0.86732228  0.10633045    -0.01700
C841        C  0.70865440  0.89425103  0.07204239     0.03200
C842        C  0.74226846  0.90398099  0.04800611    -0.04600
C843        C  0.77772585  0.88266350  0.05724678    -0.01700
C844        C  0.77974996  0.85430567  0.09020691     0.03200
C845        C  0.67679081  0.85927786  0.13090510     0.37900
C846        C  0.81297741  0.88953765  0.03331998     0.37900
C847        C  0.81646516  0.83318149  0.09801536     0.36300
C848        C  0.67065576  0.91169171  0.06211794     0.36300
N849        N  0.84573386  0.81629522  0.10389536    -0.38500
N850        N  0.64006422  0.92502595  0.05420993    -0.38500
N851        N  0.84145851  0.89481119  0.01479555    -0.38000
N852        N  0.64922054  0.85292783  0.15055584    -0.38000
C853        C  0.57816008  0.20736897  0.36856059    -0.04600
C854        C  0.57299123  0.18730843  0.32976949    -0.01700
C855        C  0.60319264  0.18703775  0.29942237     0.03200
C856        C  0.63889058  0.20664773  0.30773255    -0.04600
C857        C  0.64440501  0.22534692  0.34723964    -0.01700
C858        C  0.61413336  0.22618493  0.37709820     0.03200
C859        C  0.53594998  0.16843228  0.32029448     0.37900
C860        C  0.68203721  0.24244187  0.35812170     0.37900
C861        C  0.62051417  0.24575318  0.41725412     0.36300
C862        C  0.59693144  0.16774124  0.25918483     0.36300
N863        N  0.62554839  0.26140220  0.44923229    -0.38500
N864        N  0.59186327  0.15230398  0.22709440    -0.38500
N865        N  0.71208976  0.25583758  0.36693661    -0.38000
N866        N  0.50634231  0.15346140  0.31277615    -0.38000
C867        C  0.76986683  0.40406797  0.37087829    -0.04600
C868        C  0.80430125  0.39382959  0.34785296    -0.01700
C869        C  0.80294043  0.36659479  0.31353246     0.03200
C870        C  0.76747895  0.34833105  0.30134427    -0.04600
C871        C  0.73333168  0.35761578  0.32476224    -0.01700
C872        C  0.73461886  0.38434594  0.35938307     0.03200
C873        C  0.84180168  0.41091649  0.35897811     0.37900
C874        C  0.69575806  0.34143992  0.31202328     0.37900
C875        C  0.69909365  0.39056794  0.38339330     0.36300
C876        C  0.83855499  0.35705724  0.29087508     0.36300
N877        N  0.67066573  0.39523793  0.40243236    -0.38500
N878        N  0.86687914  0.34947353  0.27265509    -0.38500
N879        N  0.66561762  0.32891257  0.30209056    -0.38000
N880        N  0.87197002  0.42407986  0.36776235    -0.38000
C881        C  0.65980004  0.35220233  0.17808204    -0.04600
C882        C  0.62436124  0.33988001  0.15920212    -0.01700
C883        C  0.59219281  0.36642811  0.15680498     0.03200
C884        C  0.59567011  0.40522359  0.17313323    -0.04600
C885        C  0.63141260  0.41771945  0.19106784    -0.01700
C886        C  0.66332004  0.39123663  0.19377842     0.03200
C887        C  0.62115352  0.30008057  0.14199973     0.37900
C888        C  0.63554099  0.45799956  0.20680121     0.37900
C889        C  0.69921895  0.40382877  0.21448835     0.36300
C890        C  0.55521099  0.35319919  0.13930365     0.36300
N891        N  0.72769960  0.41406940  0.23104581    -0.38500
N892        N  0.52585292  0.34202470  0.12551330    -0.38500
N893        N  0.63923647  0.48998507  0.21945852    -0.38000
N894        N  0.61867397  0.26836078  0.12821670    -0.38000
C895        C  0.73922052  0.07463130  0.05180845    -0.04600
C896        C  0.71423752  0.07013401  0.08666280    -0.01700
C897        C  0.71464551  0.09773017  0.12047471     0.03200
C898        C  0.74132311  0.12997534  0.12122472    -0.04600
C899        C  0.76381383  0.13620895  0.08417873    -0.01700
C900        C  0.76281633  0.10872394  0.05018467     0.03200
C901        C  0.68830259  0.03637264  0.08846273     0.37900
C902        C  0.78717414  0.17156207  0.07933187     0.37900
C903        C  0.78481062  0.11669857  0.01237016     0.36300
C904        C  0.68615076  0.09309209  0.15359520     0.36300
N905        N  0.80204999  0.12332975  0.98211637    -0.38500
N906        N  0.66304049  0.08939294  0.17962108    -0.38500
N907        N  0.80560204  0.19973930  0.07434636    -0.38000
N908        N  0.66741932  0.00963248  0.08999128    -0.38000
C909        C  0.87844652  0.26958663  0.11965811    -0.04600
C910        C  0.90565944  0.23808639  0.11304875    -0.01700
C911        C  0.93495100  0.24088770  0.08206731     0.03200
C912        C  0.93655082  0.27435557  0.05517022    -0.04600
C913        C  0.90979457  0.30623439  0.06226964    -0.01700
C914        C  0.88133429  0.30401386  0.09436696     0.03200
C915        C  0.90378738  0.20209205  0.13778775     0.37900
C916        C  0.91032671  0.34116904  0.03576984     0.37900
C917        C  0.85363056  0.33668219  0.09950345     0.36300
C918        C  0.96420042  0.20931718  0.07914632     0.36300
N919        N  0.83166961  0.36286441  0.10339489    -0.38500
N920        N  0.98745575  0.18409565  0.07716540    -0.38500
N921        N  0.91074754  0.36912287  0.01477222    -0.38000
N922        N  0.90244967  0.17280136  0.15652100    -0.38000
C923        C  0.20944503  0.41289952  0.37053290    -0.04600
C924        C  0.19066226  0.41691151  0.33102307    -0.01700
C925        C  0.19445801  0.38666088  0.30097901     0.03200
C926        C  0.21778702  0.35298460  0.31004704    -0.04600
C927        C  0.23706812  0.34914951  0.34923781    -0.01700
C928        C  0.23268495  0.37906536  0.37965754     0.03200
C929        C  0.16882748  0.45284483  0.32046352     0.37900
C930        C  0.26028530  0.31384970  0.35880458     0.37900
C931        C  0.25108001  0.37446957  0.42069672     0.36300
C932        C  0.17515735  0.39056954  0.26032779     0.36300
N933        N  0.26567168  0.37087548  0.45343742    -0.38500
N934        N  0.15976743  0.39349011  0.22793257    -0.38500
N935        N  0.27878742  0.28575173  0.36652042    -0.38000
N936        N  0.15155267  0.48149587  0.31186236    -0.38000
C937        C  0.36316314  0.23138398  0.28986433    -0.04600
C938        C  0.35079969  0.21161915  0.32632800    -0.01700
C939        C  0.37644222  0.20778213  0.36125478     0.03200
C940        C  0.41447067  0.22388115  0.35987672    -0.04600
C941        C  0.42661422  0.24393146  0.32344508    -0.01700
C942        C  0.40089644  0.24815605  0.28887715     0.03200
C943        C  0.31178612  0.19516784  0.32784018     0.37900
C944        C  0.46608979  0.25933709  0.32092137     0.37900
C945        C  0.41287210  0.27129826  0.25292211     0.36300
C946        C  0.36330656  0.18833670  0.39905414     0.36300
N947        N  0.42270377  0.29009261  0.22465479    -0.38500
N948        N  0.35288644  0.17292363  0.42930963    -0.38500
N949        N  0.49757608  0.27149515  0.31874988    -0.38000
N950        N  0.28061290  0.18212433  0.32914922    -0.38000
C951        C  0.35923817  0.35060660  0.17632444    -0.04600
C952        C  0.36465733  0.37763913  0.20998908    -0.01700
C953        C  0.39441544  0.40636468  0.20819612     0.03200
C954        C  0.42060458  0.40711696  0.17378272    -0.04600
C955        C  0.41364552  0.38154408  0.13917984    -0.01700
C956        C  0.38264850  0.35429225  0.14007647     0.03200
C957        C  0.34122497  0.37492794  0.24769724     0.37900
C958        C  0.43898370  0.38187759  0.10283212     0.37900
C959        C  0.37507007  0.32976780  0.10333195     0.36300
C960        C  0.39730480  0.43558783  0.24173765     0.36300
N961        N  0.36908620  0.31014960  0.07411508    -0.38500
N962        N  0.39943253  0.45893183  0.26840671    -0.38500
N963        N  0.45897696  0.38197397  0.07367677    -0.38000
N964        N  0.32287120  0.37306094  0.27799697    -0.38000
C965        C  0.09922190  0.27209396  0.04871585    -0.04600
C966        C  0.13742769  0.25676261  0.04293488    -0.01700
C967        C  0.16382402  0.25365583  0.07740194     0.03200
C968        C  0.15167048  0.26425573  0.11855866    -0.04600
C969        C  0.11358542  0.28127411  0.12362878    -0.01700
C970        C  0.08801609  0.28576481  0.08879441     0.03200
C971        C  0.14984237  0.24477707  0.00128879     0.37900
C972        C  0.09927111  0.29259368  0.16481932     0.37900
C973        C  0.04933538  0.30337057  0.09456878     0.36300
C974        C  0.20379474  0.24042439  0.06999627     0.36300
N975        N  0.01866569  0.31766629  0.09922350    -0.38500
N976        N  0.23572186  0.23010649  0.06390247    -0.38500
N977        N  0.08752414  0.30170582  0.19749228    -0.38000
N978        N  0.15995762  0.23520214  0.96813529    -0.38000
C979        C  0.29587642  0.12872359  0.10535317    -0.04600
C980        C  0.27437016  0.09325259  0.10489451    -0.01700
C981        C  0.27886718  0.06615548  0.07153066     0.03200
C982        C  0.30507362  0.07438220  0.03862556    -0.04600
C983        C  0.32792400  0.10901684  0.04013605    -0.01700
C984        C  0.32296289  0.13638896  0.07315812     0.03200
C985        C  0.24817428  0.08426313  0.13916084     0.37900
C986        C  0.35530832  0.11750125  0.00680979     0.37900
C987        C  0.34409387  0.17355500  0.07258982     0.36300
C988        C  0.25723691  0.02930224  0.07173548     0.36300
N989        N  0.36074480  0.20326976  0.07207205    -0.38500
N990        N  0.24002861  0.99991448  0.07196884    -0.38500
N991        N  0.37719091  0.12427560  0.98030739    -0.38000
N992        N  0.22737738  0.07705751  0.16652918    -0.38000
C993        C  0.16520298  0.85600071  0.23012127    -0.04600
C994        C  0.15074864  0.86607369  0.27022193    -0.01700
C995        C  0.11942810  0.89342817  0.27428247     0.03200
C996        C  0.10387391  0.91320045  0.23824376    -0.04600
C997        C  0.12298112  0.90742008  0.19914756    -0.01700
C998        C  0.15214481  0.87785325  0.19476108     0.03200
C999        C  0.16821062  0.84824400  0.30757730     0.37900
C1000       C  0.11346931  0.93194295  0.16295248     0.37900
C1001       C  0.16649574  0.86838720  0.15301062     0.36300
C1002       C  0.10333038  0.90001191  0.31582384     0.36300
N1003       N  0.17761590  0.86074794  0.11968058    -0.38500
N1004       N  0.09083032  0.90492753  0.34913654    -0.38500
N1005       N  0.10627469  0.95148909  0.13401706    -0.38000
N1006       N  0.18226639  0.83416758  0.33728897    -0.38000
C1007       C  0.92740077  0.90356768  0.24163982    -0.04600
C1008       C  0.89503817  0.91260793  0.21484125    -0.01700
C1009       C  0.86205561  0.88806129  0.21397106     0.03200
C1010       C  0.86203626  0.85252221  0.23713163    -0.04600
C1011       C  0.89509885  0.84198825  0.26185679    -0.01700
C1012       C  0.92761847  0.86765187  0.26445797     0.03200
C1013       C  0.89503422  0.94751921  0.18809559     0.37900
C1014       C  0.89524321  0.80508753  0.28512216     0.37900
C1015       C  0.96225172  0.85576679  0.28813683     0.36300
C1016       C  0.82799551  0.89974014  0.18904139     0.36300
N1017       N  0.99007718  0.84593208  0.30656480    -0.38500
N1018       N  0.80101324  0.90998717  0.16948182    -0.38500
N1019       N  0.89512533  0.77559170  0.30362205    -0.38000
N1020       N  0.89499644  0.97507621  0.16649908    -0.38000
C1021       C  0.92075764  0.06572210  0.25362410    -0.04600
C1022       C  0.88218566  0.05183645  0.25597704    -0.01700
C1023       C  0.85028983  0.07832646  0.25086367     0.03200
C1024       C  0.85677968  0.11983709  0.24764581    -0.04600
C1025       C  0.89574554  0.13390302  0.25147200    -0.01700
C1026       C  0.92758320  0.10681780  0.25348616     0.03200
C1027       C  0.87517226  0.01067024  0.26629643     0.37900
C1028       C  0.90341074  0.17612502  0.25420826     0.37900
C1029       C  0.96736067  0.12119915  0.25730159     0.36300
C1030       C  0.81119659  0.06201062  0.24732178     0.36300
N1031       N  0.99897490  0.13281017  0.26105401    -0.38500
N1032       N  0.78016512  0.04872423  0.24440306    -0.38500
N1033       N  0.90963932  0.20977944  0.25617569    -0.38000
N1034       N  0.86887867  0.97838124  0.27617333    -0.38000
C1035       C  0.08781773  0.07683647  0.23950374    -0.04600
C1036       C  0.12103948  0.07908292  0.26639703    -0.01700
C1037       C  0.14974632  0.10818936  0.25953954     0.03200
C1038       C  0.14593150  0.13444627  0.22532121    -0.04600
C1039       C  0.11366272  0.13152662  0.19776917    -0.01700
C1040       C  0.08416275  0.10383544  0.20542950     0.03200
C1041       C  0.12646293  0.05103955  0.30044851     0.37900
C1042       C  0.11122334  0.15659142  0.16076910     0.37900
C1043       C  0.04949188  0.10430157  0.17855976     0.36300
C1044       C  0.18284280  0.11176503  0.28817169     0.36300
N1045       N  0.02189182  0.10478010  0.15715871    -0.38500
N1046       N  0.20925873  0.11479145  0.31095792    -0.38500
N1047       N  0.10930517  0.17605805  0.13094574    -0.38000
N1048       N  0.13099296  0.02871335  0.32764506    -0.38000
loop_ 
_geom_bond_atom_site_label_1 
_geom_bond_atom_site_label_2 
_geom_bond_distance 
_geom_bond_site_symmetry_2 
_ccdc_geom_bond_type 
O1           Ni9   1.947   1_655  S
O1           C11   1.288       .  A
O2           Ni9   1.940   1_545  S
O2           C12   1.287       .  A
O3           Ni9   1.909   1_645  S
O3           C13   1.277       .  A
O4           Ni9   1.907       .  S
O4           C14   1.278       .  A
O5          Ni10   1.909       .  S
O5           C14   1.281       .  A
O6          Ni10   1.924   1_645  S
O6           C13   1.283       .  A
O7          Ni10   1.885   1_545  S
O7           C12   1.274       .  A
O8          Ni10   1.887   1_655  S
O8           C11   1.273       .  A
Ni9         Ni10   2.383       .  S
C11        C1007   1.490       .  S
C12        C1035   1.491       .  S
C13        C1021   1.475       .  S
C14         C996   1.501       .  S
O15         Ni21   1.912       .  S
O15          C36   1.267       .  A
O16         Ni39   1.893       .  S
O16          C25   1.263       .  A
O17         Ni21   1.918       .  S
O17         Ni39   1.904       .  S
O17         Ni33   1.920       .  S
O17          H40   0.966       .  S
C18          O35   1.275       .  A
C18          O27   1.274       .  A
C18         C951   1.495       .  S
O19         Ni38   1.919       .  S
O19          C25   1.267       .  A
O20         Ni38   1.905       .  S
O20          C22   1.267       .  A
Ni21         O24   1.925       .  S
Ni21         O26   1.906       .  S
C22          O32   1.268       .  A
C22         C937   1.482       .  S
O23         Ni39   1.907       .  S
O23          C29   1.268       .  A
O24          C29   1.270       .  A
C25         C979   1.473       .  S
O26          C28   1.268       .  A
O27         Ni38   1.913       .  S
C28          O34   1.278       .  A
C28         C968   1.508       .  S
C29        C1038   1.474       .  S
H30          O31   0.966       .  S
O31         Ni39   1.908       .  S
O31         Ni33   1.898       .  S
O31         Ni38   1.919       .  S
O32         Ni33   1.925       .  S
Ni33         O37   1.879       .  S
Ni33         O35   1.921       .  S
O34         Ni39   1.955       .  S
C36          O37   1.261       .  A
C36         C926   1.459       .  S
O41         Ni47   1.947       .  S
O41          C62   1.275       .  A
O42         Ni65   1.908       .  S
O42          C51   1.269       .  A
O43         Ni47   1.919       .  S
O43         Ni65   1.912       .  S
O43         Ni59   1.906       .  S
O43          H66   0.964       .  S
C44          O61   1.272       .  A
C44          O53   1.276       .  A
C44         C881   1.470       .  S
O45         Ni64   1.942       .  S
O45          C51   1.276       .  A
O46         Ni64   1.931       .  S
O46          C48   1.275       .  A
Ni47         O50   1.923       .  S
Ni47         O52   1.930       .  S
C48          O58   1.275       .  A
C48         C870   1.518       .  S
O49         Ni65   1.910       .  S
O49          C55   1.275       .  A
O50          C55   1.276       .  A
C51         C909   1.508       .  S
O52          C54   1.275       .  A
O53         Ni64   1.920       .  S
C54          O60   1.273       .  A
C54         C898   1.531       .  S
C55        C1024   1.497       .  S
H56          O57   0.965       .  S
O57         Ni65   1.905       .  S
O57         Ni59   1.902       .  S
O57         Ni64   1.916       .  S
O58         Ni59   1.939       .  S
Ni59         O63   1.900       .  S
Ni59         O61   1.901       .  S
O60         Ni65   1.936       .  S
C62          O63   1.266       .  A
C62         C856   1.497       .  S
O67         Ni73   1.925       .  S
O67          C88   1.270       .  A
O68         Ni91   1.876       .  S
O68          C77   1.265       .  A
O69         Ni73   1.908       .  S
O69         Ni91   1.885       .  S
O69         Ni85   1.917       .  S
O69          H92   0.966       .  S
C70          O87   1.275       .  A
C70          O79   1.277       .  A
C70        C1010   1.480       .  S
O71         Ni90   1.924       .  S
O71          C77   1.271       .  A
O72         Ni90   1.922       .  S
O72          C74   1.270       .  A
Ni73         O76   1.926       .  S
Ni73         O78   1.915       .  S
C74          O84   1.274       .  A
C74         C839   1.517       .  S
O75         Ni91   1.920       .  S
O75          C81   1.277       .  A
O76          C81   1.277       .  A
C77         C797   1.458       .  S
O78          C80   1.271       .  A
O79         Ni90   1.926       .  S
C80          O86   1.280       .  A
C80         C783   1.511       .  S
C81         C811   1.488       .  S
H82          O83   0.966       .  S
O83         Ni91   1.915       .  S
O83         Ni85   1.885       .  S
O83         Ni90   1.915       .  S
O84         Ni85   1.944       .  S
Ni85         O89   1.870       .  S
Ni85         O87   1.917       .  S
O86         Ni91   1.957       .  S
C88          O89   1.260       .  A
C88         C825   1.458       .  S
O93         Ni99   1.919       .  S
O93         C114   1.270       .  A
O94        Ni117   1.893       .  S
O94         C103   1.264       .  A
O95         Ni99   1.907       .  S
O95        Ni117   1.897       .  S
O95        Ni111   1.908       .  S
O95         H118   0.966       .  S
C96         O113   1.278       .  A
C96         O105   1.277       .  A
C96         C993   1.485       .  S
O97        Ni116   1.909       .  S
O97         C103   1.264       .  A
O98        Ni116   1.897       .  S
O98         C100   1.264       .  A
Ni99        O102   1.931       .  S
Ni99        O104   1.906       .  S
C100        O110   1.272       .  A
C100        C769   1.489       .  S
O101       Ni117   1.882       .  S
O101        C107   1.265       .  A
O102        C107   1.274       .  A
C103        C727   1.467       .  S
O104        C106   1.267       .  A
O105       Ni116   1.906       .  S
C106        O112   1.278       .  A
C106        C713   1.507       .  S
C107        C744   1.463       .  S
H108        O109   0.966       .  S
O109       Ni117   1.895       .  S
O109       Ni111   1.882       .  S
O109       Ni116   1.898       .  S
O110       Ni111   1.939       .  S
Ni111       O115   1.879       .  S
Ni111       O113   1.918       .  S
O112       Ni117   1.955       .  S
C114        O115   1.264       .  A
C114        C755   1.458       .  S
O119       Ni127   1.912       .  S
O119        C129   1.279       .  A
O120       Ni127   1.909   1_545  S
O120        C130   1.280   1_556  A
O121       Ni127   1.906       .  S
O121        C131   1.280       .  A
O122       Ni127   1.914   1_545  S
O122        C132   1.280       .  A
O123       Ni128   1.888   1_545  S
O123        C132   1.275       .  A
O124       Ni128   1.888       .  S
O124        C131   1.275       .  A
O125       Ni128   1.906   1_545  S
O125        C130   1.280   1_556  A
O126       Ni128   1.907       .  S
O126        C129   1.280       .  A
Ni127      Ni128   2.396       .  S
C129        C699   1.473       .  S
C130        C982   1.475       .  S
C131        C758   1.458   1_556  S
C132        C685   1.461       .  S
O133       Ni141   1.933   1_654  S
O133        C143   1.285       .  A
O134       Ni141   1.932       .  S
O134        C144   1.284       .  A
O135       Ni141   1.926   1_655  S
O135        C145   1.282       .  A
O136       Ni141   1.919   1_554  S
O136        C146   1.280       .  A
O137       Ni142   1.928       .  S
O137        C146   1.283   1_556  A
O138       Ni142   1.924   1_655  S
O138        C145   1.283       .  A
O139       Ni142   1.916       .  S
O139        C144   1.281       .  A
O140       Ni142   1.918   1_654  S
O140        C143   1.282       .  A
Ni141      Ni142   2.385       .  S
C143        C912   1.512       .  S
C144        C671   1.492       .  S
C145        C657   1.491       .  S
C146        C965   1.487       .  S
O147       Ni155   1.938       .  S
O147        C157   1.285       .  A
O148       Ni155   1.942   1_544  S
O148        C158   1.286       .  A
O149       Ni155   1.934   1_554  S
O149        C159   1.284       .  A
O150       Ni155   1.935   1_545  S
O150        C160   1.284       .  A
O151       Ni156   1.942   1_545  S
O151        C160   1.286       .  A
O152       Ni156   1.946   1_554  S
O152        C159   1.287       .  A
O153       Ni156   1.924   1_544  S
O153        C158   1.282       .  A
O154       Ni156   1.923       .  S
O154        C157   1.281       .  A
Ni155      Ni156   2.378       .  S
C157        C632   1.500       .  S
C158        C895   1.509       .  S
C159        C842   1.534       .  S
C160        C643   1.507       .  S
O161       Ni169   1.935   1_554  S
O161        C171   1.285       .  A
O162       Ni169   1.945   1_655  S
O162        C172   1.288       .  A
O163       Ni169   1.888       .  S
O163        C173   1.276       .  A
O164       Ni169   1.898   1_654  S
O164        C174   1.275       .  A
O165       Ni170   1.907   1_654  S
O165        C174   1.280       .  A
O166       Ni170   1.906       .  S
O166        C173   1.279       .  A
O167       Ni170   1.910   1_655  S
O167        C172   1.279       .  A
O168       Ni170   1.906   1_554  S
O168        C171   1.279       .  A
Ni169      Ni170   2.392       .  S
C171        C772   1.489       .  S
C172        C615   1.498       .  S
C173        C601   1.463       .  S
C174        C828   1.460       .  S
O175       Ni181   1.907       .  S
O175        C196   1.264       .  A
O176       Ni199   1.890       .  S
O176        C185   1.266       .  A
O177       Ni181   1.909       .  S
O177       Ni199   1.894       .  S
O177       Ni193   1.909       .  S
O177        H200   0.966       .  S
C178        O195   1.269       .  A
C178        O187   1.274       .  A
C178        C604   1.477       .  S
O179       Ni198   1.921       .  S
O179        C185   1.268       .  A
O180       Ni198   1.905       .  S
O180        C182   1.266       .  A
Ni181       O184   1.900       .  S
Ni181       O186   1.914       .  S
C182        O192   1.273       .  A
C182        C587   1.511       .  S
O183       Ni199   1.902       .  S
O183        C189   1.273       .  A
O184        C189   1.273       .  A
C185        C545   1.466       .  S
O186        C188   1.271       .  A
O187       Ni198   1.918       .  S
C188        O194   1.278       .  A
C188        C573   1.510       .  S
C189        C562   1.465       .  S
H190        O191   0.969       .  S
O191       Ni199   1.901       .  S
O191       Ni193   1.900       .  S
O191       Ni198   1.915       .  S
O192       Ni193   1.945       .  S
Ni193       O197   1.892       .  S
Ni193       O195   1.895       .  S
O194       Ni199   1.953       .  S
C196        O197   1.261       .  A
C196        C702   1.470       .  S
O201       Ni209   1.913   1_655  S
O201        C211   1.280       .  A
O202       Ni209   1.917   1_545  S
O202        C212   1.281       .  A
O203       Ni209   1.928   1_645  S
O203        C213   1.283       .  A
O204       Ni209   1.929       .  S
O204        C214   1.284       .  A
O205       Ni210   1.924       .  S
O205        C214   1.282       .  A
O206       Ni210   1.934   1_645  S
O206        C213   1.285       .  A
O207       Ni210   1.905   1_545  S
O207        C212   1.278       .  A
O208       Ni210   1.913   1_655  S
O208        C211   1.279       .  A
Ni209      Ni210   2.376       .  S
C211        C506   1.478       .  S
C212        C531   1.501       .  S
C213        C517   1.525       .  S
C214        C590   1.518       .  S
O215       Ni221   1.927       .  S
O215        C236   1.269       .  A
O216       Ni239   1.885       .  S
O216        C225   1.263       .  A
O217       Ni221   1.909       .  S
O217       Ni239   1.897       .  S
O217       Ni233   1.901       .  S
O217        H240   0.967       .  S
C218        O235   1.273       .  A
C218        O227   1.277       .  A
C218        C534   1.484       .  S
O219       Ni238   1.928       .  S
O219        C225   1.270       .  A
O220       Ni238   1.907       .  S
O220        C222   1.268       .  A
Ni221       O224   1.915       .  S
Ni221       O226   1.902       .  S
C222        O232   1.274       .  A
C222        C674   1.495       .  S
O223       Ni239   1.906       .  S
O223        C229   1.272       .  A
O224        C229   1.276       .  A
C225        C475   1.465       .  S
O226        C228   1.267       .  A
O227       Ni238   1.919       .  S
C228        O234   1.276       .  A
C228        C461   1.519       .  S
C229        C489   1.481       .  S
H230        O231   0.964       .  S
O231       Ni239   1.902       .  S
O231       Ni233   1.894       .  S
O231       Ni238   1.906       .  S
O232       Ni233   1.941       .  S
Ni233       O237   1.885       .  S
Ni233       O235   1.905       .  S
O234       Ni239   1.948       .  S
C236        O237   1.262       .  A
C236        C688   1.468       .  S
O241       Ni247   1.956       .  S
O241        C262   1.279       .  A
O242       Ni265   1.909       .  S
O242        C251   1.271       .  A
O243       Ni247   1.922       .  S
O243       Ni265   1.907       .  S
O243       Ni259   1.919       .  S
O243        H266   0.970       .  S
C244        O261   1.276       .  A
C244        O253   1.279       .  A
C244        C520   1.517       .  S
O245       Ni264   1.949       .  S
O245        C251   1.279       .  A
O246       Ni264   1.927       .  S
O246        C248   1.275       .  A
Ni247       O250   1.942       .  S
Ni247       O252   1.928       .  S
C248        O258   1.278       .  A
C248        C646   1.514       .  S
O249       Ni265   1.941       .  S
O249        C255   1.283       .  A
O250        C255   1.279       .  A
C251        C436   1.494       .  S
O252        C254   1.275       .  A
O253       Ni264   1.941       .  S
C254        O260   1.278       .  A
C254        C419   1.519       .  S
C255        C447   1.518       .  S
H256        O257   0.965       .  S
O257       Ni265   1.932       .  S
O257       Ni259   1.908       .  S
O257       Ni264   1.922       .  S
O258       Ni259   1.949       .  S
Ni259       O263   1.894       .  S
Ni259       O261   1.929       .  S
O260       Ni265   1.953       .  S
C262        O263   1.264       .  A
C262        C660   1.495       .  S
O267       Ni273   1.949       .  S
O267        C288   1.275       .  A
O268       Ni291   1.918       .  S
O268        C277   1.270       .  A
O269       Ni273   1.928       .  S
O269       Ni291   1.919       .  S
O269       Ni285   1.914       .  S
O269        H292   0.968       .  S
C270        O287   1.274       .  A
C270        O279   1.274       .  A
C270        C405   1.483       .  S
O271       Ni290   1.941       .  S
O271        C277   1.274       .  A
O272       Ni290   1.925       .  S
O272        C274   1.274       .  A
Ni273       O276   1.938       .  S
Ni273       O278   1.918       .  S
C274        O284   1.274       .  A
C274        C391   1.514       .  S
O275       Ni291   1.903       .  S
O275        C281   1.270       .  A
O276        C281   1.276       .  A
C277        C618   1.502       .  S
O278        C280   1.272       .  A
O279       Ni290   1.922       .  S
C280        O286   1.278       .  A
C280        C629   1.523       .  S
C281        C503   1.487       .  S
H282        O283   0.967       .  S
O283       Ni291   1.909       .  S
O283       Ni285   1.914       .  S
O283       Ni290   1.929       .  S
O284       Ni285   1.934       .  S
Ni285       O289   1.910       .  S
Ni285       O287   1.914       .  S
O286       Ni291   1.950       .  S
C288        O289   1.268       .  A
C288        C377   1.498       .  S
O293       Ni301   1.897       .  S
O293        C303   1.277       .  A
O294       Ni301   1.911       .  S
O294        C304   1.278       .  A
O295       Ni301   1.941       .  S
O295        C305   1.286       .  A
O296       Ni301   1.952       .  S
O296        C306   1.289       .  A
O297       Ni302   1.924       .  S
O297        C306   1.282       .  A
O298       Ni302   1.928       .  S
O298        C305   1.282       .  A
O299       Ni302   1.915       .  S
O299        C304   1.281       .  A
O300       Ni302   1.918       .  S
O300        C303   1.282       .  A
Ni301      Ni302   2.382       .  S
C303        C492   1.490       .  S
C304        C408   1.478       .  S
C305        C576   1.502       .  S
C306        C450   1.529       .  S
O307       Ni315   1.910       .  S
O307        C317   1.280       .  A
O308       Ni315   1.914       .  S
O308        C318   1.281       .  A
O309       Ni315   1.896       .  S
O309        C319   1.277       .  A
O310       Ni315   1.901       .  S
O310        C320   1.278       .  A
O311       Ni316   1.914       .  S
O311        C320   1.279       .  A
O312       Ni316   1.901       .  S
O312        C319   1.278       .  A
O313       Ni316   1.927       .  S
O313        C318   1.284       .  A
O314       Ni316   1.919       .  S
O314        C317   1.283       .  A
Ni315      Ni316   2.384       .  S
C317        C954   1.498       .  S
C318        C814   1.517       .  S
C319        C741   1.463       .  S
C320        C884   1.468       .  S
O321       Ni329   1.938       .  S
O321        C331   1.285       .  A
O322       Ni329   1.933       .  S
O322        C332   1.284       .  A
O323       Ni329   1.947       .  S
O323        C333   1.286       .  A
O324       Ni329   1.943       .  S
O324        C334   1.285       .  A
O325       Ni330   1.930       .  S
O325        C334   1.282       .  A
O326       Ni330   1.933       .  S
O326        C333   1.282       .  A
O327       Ni330   1.934       .  S
O327        C332   1.285       .  A
O328       Ni330   1.936       .  S
O328        C331   1.286       .  A
Ni329      Ni330   2.375       .  S
C331        C867   1.533       .  S
C332        C394   1.523       .  S
C333        C422   1.507       .  S
C334        C786   1.503       .  S
O335       Ni343   1.920       .  S
O335        C345   1.281       .  A
O336       Ni343   1.923       .  S
O336        C346   1.282       .  A
O337       Ni343   1.893       .  S
O337        C347   1.277       .  A
O338       Ni343   1.891       .  S
O338        C348   1.277       .  A
O339       Ni344   1.901       .  S
O339        C348   1.278       .  A
O340       Ni344   1.898       .  S
O340        C347   1.278       .  A
O341       Ni344   1.928       .  S
O341        C346   1.283       .  A
O342       Ni344   1.940       .  S
O342        C345   1.285       .  A
Ni343      Ni344   2.386       .  S
C345        C380   1.497       .  S
C346        C716   1.489       .  S
C347        C800   1.463       .  S
C348        C559   1.490       .  S
O349       Ni357   1.899       .  S
O349        C359   1.278       .  A
O350       Ni357   1.896       .  S
O350        C360   1.278       .  A
O351       Ni357   1.901       .  S
O351        C361   1.278       .  A
O352       Ni357   1.893       .  S
O352        C362   1.277       .  A
O353       Ni358   1.907       .  S
O353        C362   1.280       .  A
O354       Ni358   1.912       .  S
O354        C361   1.280       .  A
O355       Ni358   1.903       .  S
O355        C360   1.278       .  A
O356       Ni358   1.898       .  S
O356        C359   1.278       .  A
Ni357      Ni358   2.396       .  S
C359        C923   1.463       .  S
C360        C548   1.461       .  S
C361        C478   1.470       .  S
C362        C730   1.468       .  S
O363       Ni371   1.919       .  S
O363        C373   1.281       .  A
O364       Ni371   1.920       .  S
O364        C374   1.282       .  A
O365       Ni371   1.915       .  S
O365        C375   1.281       .  A
O366       Ni371   1.919       .  S
O366        C376   1.281       .  A
O367       Ni372   1.929       .  S
O367        C376   1.283       .  A
O368       Ni372   1.922       .  S
O368        C375   1.281       .  A
O369       Ni372   1.929       .  S
O369        C374   1.283       .  A
O370       Ni372   1.929       .  S
O370        C373   1.284       .  A
Ni371      Ni372   2.387       .  S
C373        C464   1.498       .  S
C374        C853   1.493       .  S
C375        C940   1.484       .  S
C376        C433   1.490       .  S
C377        C378   1.414       .  A
C377        C382   1.415       .  A
C378        C379   1.415       .  A
C378        C383   1.451       .  S
C379        C380   1.415       .  A
C379        C386   1.452       .  S
C380        C381   1.415       .  A
C381        C382   1.420       .  A
C381        C384   1.450       .  S
C382        C385   1.450       .  S
C383        N390   1.157       .  T
C384        N389   1.157       .  T
C385        N387   1.157       .  T
C386        N388   1.157       .  T
C391        C392   1.415       .  A
C391        C396   1.421       .  A
C392        C393   1.422       .  A
C392        C397   1.451       .  S
C393        C394   1.426       .  A
C393        C400   1.450       .  S
C394        C395   1.422       .  A
C395        C396   1.418       .  A
C395        C398   1.452       .  S
C396        C399   1.453       .  S
C397        N404   1.157       .  T
C398        N403   1.158       .  T
C399        N401   1.158       .  T
C400        N402   1.157       .  T
C405        C406   1.416       .  A
C405        C410   1.413       .  A
C406        C407   1.407       .  A
C406        C411   1.452       .  S
C407        C408   1.410       .  A
C407        C414   1.454       .  S
C408        C409   1.412       .  A
C409        C410   1.412       .  A
C409        C412   1.451       .  S
C410        C413   1.451       .  S
C411        N418   1.157       .  T
C412        N417   1.157       .  T
C413        N415   1.157       .  T
C414        N416   1.157       .  T
C419        C420   1.423       .  A
C419        C424   1.420       .  A
C420        C421   1.420       .  A
C420        C425   1.452       .  S
C421        C422   1.413       .  A
C421        C428   1.452       .  S
C422        C423   1.415       .  A
C423        C424   1.426       .  A
C423        C426   1.450       .  S
C424        C427   1.449       .  S
C425        N432   1.157       .  T
C426        N431   1.157       .  T
C427        N429   1.157       .  T
C428        N430   1.157       .  T
C433        C434   1.413       .  A
C433        C438   1.412       .  A
C434        C435   1.416       .  A
C434        C439   1.451       .  S
C435        C436   1.416       .  A
C435        C442   1.450       .  S
C436        C437   1.414       .  A
C437        C438   1.414       .  A
C437        C440   1.450       .  S
C438        C441   1.451       .  S
C439        N446   1.158       .  T
C440        N445   1.157       .  T
C441        N443   1.157       .  T
C442        N444   1.157       .  T
C447        C448   1.421       .  A
C447        C452   1.416       .  A
C448        C449   1.425       .  A
C448        C453   1.451       .  S
C449        C450   1.423       .  A
C449        C456   1.451       .  S
C450        C451   1.427       .  A
C451        C452   1.421       .  A
C451        C454   1.451       .  S
C452        C455   1.453       .  S
C453        N460   1.158       .  T
C454        N459   1.157       .  T
C455        N457   1.157       .  T
C456        N458   1.158       .  T
C461        C462   1.428       .  A
C461        C466   1.425       .  A
C462        C463   1.416       .  A
C462        C467   1.451       .  S
C463        C464   1.411       .  A
C463        C470   1.453       .  S
C464        C465   1.414       .  A
C465        C466   1.418       .  A
C465        C468   1.453       .  S
C466        C469   1.450       .  S
C467        N474   1.157       .  T
C468        N473   1.157       .  T
C469        N471   1.157       .  T
C470        N472   1.157       .  T
C475        C476   1.408       .  A
C475        C480   1.409       .  A
C476        C477   1.405       .  A
C476        C481   1.452       .  S
C477        C478   1.413       .  A
C477        C484   1.452       .  S
C478        C479   1.412       .  A
C479        C480   1.406       .  A
C479        C482   1.452       .  S
C480        C483   1.451       .  S
C481        N488   1.157       .  T
C482        N487   1.157       .  T
C483        N485   1.157       .  T
C484        N486   1.157       .  T
C489        C490   1.410       .  A
C489        C494   1.414       .  A
C490        C491   1.403       .  A
C490        C495   1.454       .  S
C491        C492   1.420       .  A
C491        C498   1.453       .  S
C492        C493   1.418       .  A
C493        C494   1.411       .  A
C493        C496   1.452       .  S
C494        C497   1.451       .  S
C495        N502   1.157       .  T
C496        N501   1.158       .  T
C497        N499   1.157       .  T
C498        N500   1.157       .  T
C503        C504   1.416       .  A
C503        C508   1.415       .  A
C504        C505   1.408       .  A
C504        C509   1.450       .  S
C505        C506   1.411       .  A
C505        C512   1.454       .  S
C506        C507   1.411       .  A
C507        C508   1.412       .  A
C507        C510   1.451       .  S
C508        C511   1.451       .  S
C509        N516   1.156       .  T
C510        N515   1.157       .  T
C511        N513   1.157       .  T
C512        N514   1.157       .  T
C517        C518   1.426       .  A
C517        C522   1.425       .  A
C518        C519   1.423       .  A
C518        C523   1.452       .  S
C519        C520   1.420       .  A
C519        C526   1.453       .  S
C520        C521   1.417       .  A
C521        C522   1.420       .  A
C521        C524   1.452       .  S
C522        C525   1.451       .  S
C523        N530   1.158       .  T
C524        N529   1.157       .  T
C525        N527   1.158       .  T
C526        N528   1.158       .  T
C531        C532   1.424       .  A
C531        C536   1.422       .  A
C532        C533   1.407       .  A
C532        C537   1.452       .  S
C533        C534   1.409       .  A
C533        C540   1.454       .  S
C534        C535   1.414       .  A
C535        C536   1.410       .  A
C535        C538   1.454       .  S
C536        C539   1.452       .  S
C537        N544   1.158       .  T
C538        N543   1.158       .  T
C539        N541   1.157       .  T
C540        N542   1.157       .  T
C545        C546   1.413       .  A
C545        C550   1.408       .  A
C546        C547   1.403       .  A
C546        C551   1.451       .  S
C547        C548   1.407       .  A
C547        C554   1.453       .  S
C548        C549   1.411       .  A
C549        C550   1.404       .  A
C549        C552   1.452       .  S
C550        C553   1.451       .  S
C551        N558   1.157       .  T
C552        N557   1.157       .  T
C553        N555   1.157       .  T
C554        N556   1.157       .  T
C559        C560   1.423       .  A
C559        C564   1.425       .  A
C560        C561   1.404       .  A
C560        C565   1.453       .  S
C561        C562   1.407       .  A
C561        C568   1.454       .  S
C562        C563   1.408       .  A
C563        C564   1.401       .  A
C563        C566   1.456       .  S
C564        C567   1.454       .  S
C565        N572   1.158       .  T
C566        N571   1.157       .  T
C567        N569   1.158       .  T
C568        N570   1.157       .  T
C573        C574   1.417       .  A
C573        C578   1.422       .  A
C574        C575   1.423       .  A
C574        C579   1.449       .  S
C575        C576   1.416       .  A
C575        C582   1.450       .  S
C576        C577   1.412       .  A
C577        C578   1.416       .  A
C577        C580   1.452       .  S
C578        C581   1.452       .  S
C579        N586   1.157       .  T
C580        N585   1.157       .  T
C581        N583   1.157       .  T
C582        N584   1.157       .  T
C587        C588   1.418       .  A
C587        C592   1.420       .  A
C588        C589   1.418       .  A
C588        C593   1.453       .  S
C589        C590   1.424       .  A
C589        C596   1.451       .  S
C590        C591   1.422       .  A
C591        C592   1.416       .  A
C591        C594   1.452       .  S
C592        C595   1.452       .  S
C593        N600   1.158       .  T
C594        N599   1.157       .  T
C595        N597   1.157       .  T
C596        N598   1.158       .  T
C601        C602   1.410       .  A
C601        C606   1.409       .  A
C602        C603   1.407       .  A
C602        C607   1.452       .  S
C603        C604   1.416       .  A
C603        C610   1.451       .  S
C604        C605   1.417       .  A
C605        C606   1.398       .  A
C605        C608   1.453       .  S
C606        C609   1.455       .  S
C607        N614   1.157       .  T
C608        N613   1.157       .  T
C609        N611   1.157       .  T
C610        N612   1.158       .  T
C615        C616   1.412       .  A
C615        C620   1.417       .  A
C616        C617   1.419       .  A
C616        C621   1.450       .  S
C617        C618   1.419       .  A
C617        C624   1.450       .  S
C618        C619   1.414       .  A
C619        C620   1.416       .  A
C619        C622   1.450       .  S
C620        C623   1.452       .  S
C621        N628   1.157       .  T
C622        N627   1.157       .  T
C623        N625   1.157       .  T
C624        N626   1.157       .  T
C629        C630   1.425       .  A
C629        C634   1.428       .  A
C630        C631   1.418       .  A
C630        C635   1.451       .  S
C631        C632   1.410       .  A
C631        C638   1.451       .  S
C632        C633   1.413       .  A
C633        C634   1.419       .  A
C633        C636   1.453       .  S
C634        C637   1.452       .  S
C635        N642   1.157       .  T
C636        N641   1.158       .  T
C637        N639   1.158       .  T
C638        N640   1.157       .  T
C643        C644   1.416       .  A
C643        C648   1.414       .  A
C644        C645   1.425       .  A
C644        C649   1.449       .  S
C645        C646   1.418       .  A
C645        C652   1.448       .  S
C646        C647   1.421       .  A
C647        C648   1.419       .  A
C647        C650   1.452       .  S
C648        C651   1.452       .  S
C649        N656   1.157       .  T
C650        N655   1.157       .  T
C651        N653   1.157   1_545  T
C652        N654   1.157       .  T
C657        C658   1.412       .  A
C657        C662   1.414       .  A
C658        C659   1.413       .  A
C658        C663   1.452       .  S
C659        C660   1.417       .  A
C659        C666   1.452       .  S
C660        C661   1.415       .  A
C661        C662   1.417       .  A
C661        C664   1.450       .  S
C662        C665   1.450       .  S
C663        N670   1.157       .  T
C664        N669   1.157       .  T
C665        N667   1.157       .  T
C666        N668   1.157       .  T
C671        C672   1.415       .  A
C671        C676   1.412       .  A
C672        C673   1.419       .  A
C672        C677   1.450       .  S
C673        C674   1.414       .  A
C673        C680   1.449       .  S
C674        C675   1.418       .  A
C675        C676   1.410       .  A
C675        C678   1.453       .  S
C676        C679   1.453       .  S
C677        N684   1.157       .  T
C678        N683   1.157       .  T
C679        N681   1.157       .  T
C680        N682   1.157       .  T
C685        C686   1.411       .  A
C685        C690   1.406       .  A
C686        C687   1.402       .  A
C686        C691   1.453       .  S
C687        C688   1.412       .  A
C687        C694   1.453       .  S
C688        C689   1.412       .  A
C689        C690   1.405       .  A
C689        C692   1.450       .  S
C690        C693   1.451       .  S
C691        N698   1.157       .  T
C692        N697   1.157       .  T
C693        N695   1.157       .  T
C694        N696   1.157       .  T
C699        C700   1.416       .  A
C699        C704   1.409       .  A
C700        C701   1.409       .  A
C700        C705   1.451       .  S
C701        C702   1.406       .  A
C701        C708   1.451       .  S
C702        C703   1.414       .  A
C703        C704   1.405       .  A
C703        C706   1.453       .  S
C704        C707   1.452       .  S
C705        N712   1.157       .  T
C706        N711   1.157       .  T
C707        N709   1.157       .  T
C708        N710   1.157       .  T
C713        C714   1.420       .  A
C713        C718   1.426       .  A
C714        C715   1.415       .  A
C714        C719   1.451       .  S
C715        C716   1.410       .  A
C715        C722   1.449       .  S
C716        C717   1.409       .  A
C717        C718   1.415       .  A
C717        C720   1.452       .  S
C718        C721   1.452       .  S
C719        N726   1.157       .  T
C720        N725   1.157       .  T
C721        N723   1.158       .  T
C722        N724   1.156       .  T
C727        C728   1.410       .  A
C727        C732   1.414       .  A
C728        C729   1.403       .  A
C728        C733   1.453       .  S
C729        C730   1.414       .  A
C729        C736   1.453       .  S
C730        C731   1.411       .  A
C731        C732   1.403       .  A
C731        C734   1.453       .  S
C732        C735   1.454       .  S
C733        N740   1.157       .  T
C734        N739   1.157       .  T
C735        N737   1.158       .  T
C736        N738   1.157       .  T
C741        C742   1.411       .  A
C741        C746   1.410       .  A
C742        C743   1.404       .  A
C742        C747   1.452       .  S
C743        C744   1.411       .  A
C743        C750   1.452       .  S
C744        C745   1.410       .  A
C745        C746   1.399       .  A
C745        C748   1.450       .  S
C746        C749   1.454       .  S
C747        N754   1.157       .  T
C748        N753   1.156       .  T
C749        N751   1.157       .  T
C750        N752   1.157       .  T
C755        C756   1.410       .  A
C755        C760   1.409       .  A
C756        C757   1.401       .  A
C756        C761   1.453       .  S
C757        C758   1.411       .  A
C757        C764   1.453   1_554  S
C758        C759   1.410       .  A
C759        C760   1.401       .  A
C759        C762   1.453       .  S
C760        C763   1.452       .  S
C761        N768   1.157       .  T
C762        N767   1.157       .  T
C763        N765   1.157       .  T
C764        N766   1.158       .  T
C769        C770   1.415       .  A
C769        C774   1.414       .  A
C770        C771   1.408       .  A
C770        C775   1.453       .  S
C771        C772   1.412       .  A
C771        C778   1.452       .  S
C772        C773   1.416       .  A
C773        C774   1.417       .  A
C773        C776   1.450       .  S
C774        C777   1.450       .  S
C775        N782   1.157       .  T
C776        N781   1.157   1_554  T
C777        N779   1.157       .  T
C778        N780   1.157       .  T
C783        C784   1.417       .  A
C783        C788   1.422       .  A
C784        C785   1.425       .  A
C784        C789   1.449       .  S
C785        C786   1.416       .  A
C785        C792   1.449       .  S
C786        C787   1.412       .  A
C787        C788   1.416       .  A
C787        C790   1.452       .  S
C788        C791   1.452       .  S
C789        N796   1.157       .  T
C790        N795   1.157       .  T
C791        N793   1.157       .  T
C792        N794   1.157       .  T
C797        C798   1.409       .  A
C797        C802   1.407       .  A
C798        C799   1.402       .  A
C798        C803   1.452       .  S
C799        C800   1.412       .  A
C799        C806   1.453       .  S
C800        C801   1.414       .  A
C801        C802   1.400       .  A
C801        C804   1.453       .  S
C802        C805   1.453       .  S
C803        N810   1.157       .  T
C804        N809   1.158       .  T
C805        N807   1.157       .  T
C806        N808   1.157       .  T
C811        C812   1.409       .  A
C811        C816   1.410       .  A
C812        C813   1.416       .  A
C812        C817   1.452       .  S
C813        C814   1.428       .  A
C813        C820   1.451       .  S
C814        C815   1.429       .  A
C815        C816   1.412       .  A
C815        C818   1.452       .  S
C816        C819   1.455       .  S
C817        N824   1.157       .  T
C818        N823   1.158       .  T
C819        N821   1.157       .  T
C820        N822   1.158       .  T
C825        C826   1.407       .  A
C825        C830   1.412       .  A
C826        C827   1.406       .  A
C826        C831   1.451       .  S
C827        C828   1.412       .  A
C827        C834   1.451       .  S
C828        C829   1.407       .  A
C829        C830   1.400       .  A
C829        C832   1.452       .  S
C830        C833   1.454       .  S
C831        N838   1.157       .  T
C832        N837   1.157   1_554  T
C833        N835   1.157       .  T
C834        N836   1.157   1_655  T
C839        C840   1.416       .  A
C839        C844   1.418       .  A
C840        C841   1.424       .  A
C840        C845   1.452       .  S
C841        C842   1.427       .  A
C841        C848   1.450       .  S
C842        C843   1.428       .  A
C843        C844   1.423       .  A
C843        C846   1.452       .  S
C844        C847   1.453       .  S
C845        N852   1.157       .  T
C846        N851   1.158       .  T
C847        N849   1.158       .  T
C848        N850   1.157       .  T
C853        C854   1.417       .  A
C853        C858   1.412       .  A
C854        C855   1.419       .  A
C854        C859   1.451       .  S
C855        C856   1.415       .  A
C855        C862   1.450       .  S
C856        C857   1.417       .  A
C857        C858   1.411       .  A
C857        C860   1.452       .  S
C858        C861   1.452       .  S
C859        N866   1.158       .  T
C860        N865   1.157       .  T
C861        N863   1.157       .  T
C862        N864   1.157       .  T
C867        C868   1.429       .  A
C867        C872   1.426       .  A
C868        C869   1.425       .  A
C868        C873   1.450       .  S
C869        C870   1.415       .  A
C869        C876   1.451       .  S
C870        C871   1.420       .  A
C871        C872   1.422       .  A
C871        C874   1.453       .  S
C872        C875   1.452       .  S
C873        N880   1.158       .  T
C874        N879   1.158       .  T
C875        N877   1.158       .  T
C876        N878   1.157       .  T
C881        C882   1.412       .  A
C881        C886   1.411       .  A
C882        C883   1.409       .  A
C882        C887   1.451       .  S
C883        C884   1.411       .  A
C883        C890   1.450       .  S
C884        C885   1.410       .  A
C885        C886   1.402       .  A
C885        C888   1.453       .  S
C886        C889   1.453       .  S
C887        N894   1.157       .  T
C888        N893   1.157       .  T
C889        N891   1.157       .  T
C890        N892   1.157       .  T
C895        C896   1.416       .  A
C895        C900   1.412       .  A
C896        C897   1.420       .  A
C896        C901   1.451       .  S
C897        C898   1.426       .  A
C897        C904   1.451       .  S
C898        C899   1.431       .  A
C899        C900   1.422       .  A
C899        C902   1.451       .  S
C900        C903   1.453       .  S
C901        N908   1.157       .  T
C902        N907   1.157       .  T
C903        N905   1.158   1_554  T
C904        N906   1.158       .  T
C909        C910   1.418       .  A
C909        C914   1.420       .  A
C910        C911   1.415       .  A
C910        C915   1.451       .  S
C911        C912   1.421       .  A
C911        C918   1.453       .  S
C912        C913   1.420       .  A
C913        C914   1.419       .  A
C913        C916   1.451       .  S
C914        C917   1.452       .  S
C915        N922   1.157       .  T
C916        N921   1.158       .  T
C917        N919   1.158       .  T
C918        N920   1.158       .  T
C923        C924   1.413       .  A
C923        C928   1.410       .  A
C924        C925   1.401       .  A
C924        C929   1.453       .  S
C925        C926   1.407       .  A
C925        C932   1.453       .  S
C926        C927   1.411       .  A
C927        C928   1.403       .  A
C927        C930   1.453       .  S
C928        C931   1.453       .  S
C929        N936   1.157       .  T
C930        N935   1.157       .  T
C931        N933   1.158       .  T
C932        N934   1.157       .  T
C937        C938   1.411       .  A
C937        C942   1.413       .  A
C938        C939   1.414       .  A
C938        C943   1.450       .  S
C939        C940   1.414       .  A
C939        C946   1.450       .  S
C940        C941   1.413       .  A
C941        C942   1.408       .  A
C941        C944   1.453       .  S
C942        C945   1.452       .  S
C943        N950   1.157       .  T
C944        N949   1.157       .  T
C945        N947   1.157       .  T
C946        N948   1.157       .  T
C951        C952   1.416       .  A
C951        C956   1.417       .  A
C952        C953   1.413       .  A
C952        C957   1.453       .  S
C953        C954   1.421       .  A
C953        C960   1.453       .  S
C954        C955   1.416       .  A
C955        C956   1.410       .  A
C955        C958   1.451       .  S
C956        C959   1.453       .  S
C957        N964   1.158       .  T
C958        N963   1.157       .  T
C959        N961   1.157       .  T
C960        N962   1.158       .  T
C965        C966   1.410       .  A
C965        C970   1.410       .  A
C966        C967   1.417       .  A
C966        C971   1.450       .  S
C967        C968   1.421       .  A
C967        C974   1.451       .  S
C968        C969   1.424       .  A
C969        C970   1.413       .  A
C969        C972   1.452       .  S
C970        C973   1.454       .  S
C971        N978   1.157   1_554  T
C972        N977   1.158       .  T
C973        N975   1.157       .  T
C974        N976   1.158       .  T
C979        C980   1.410       .  A
C979        C984   1.414       .  A
C980        C981   1.406       .  A
C980        C985   1.452       .  S
C981        C982   1.414       .  A
C981        C988   1.452       .  S
C982        C983   1.412       .  A
C983        C984   1.406       .  A
C983        C986   1.452       .  S
C984        C987   1.453       .  S
C985        N992   1.157       .  T
C986        N991   1.157   1_554  T
C987        N989   1.157       .  T
C988        N990   1.157   1_545  T
C993        C994   1.412       .  A
C993        C998   1.414       .  A
C994        C995   1.409       .  A
C994        C999   1.454       .  S
C995        C996   1.424       .  A
C995       C1002   1.452       .  S
C996        C997   1.423       .  A
C997        C998   1.407       .  A
C997       C1000   1.453       .  S
C998       C1001   1.454       .  S
C999       N1006   1.158       .  T
C1000      N1005   1.157       .  T
C1001      N1003   1.158       .  T
C1002      N1004   1.158       .  T
C1007      C1008   1.420       .  A
C1007      C1012   1.414       .  A
C1008      C1009   1.405       .  A
C1008      C1013   1.455       .  S
C1009      C1010   1.409       .  A
C1009      C1016   1.453       .  S
C1010      C1011   1.413       .  A
C1011      C1012   1.417       .  A
C1011      C1014   1.450       .  S
C1012      C1015   1.449       .  S
C1013      N1020   1.158       .  T
C1014      N1019   1.157       .  T
C1015      N1017   1.157       .  T
C1016      N1018   1.157       .  T
C1021      C1022   1.405       .  A
C1021      C1026   1.407       .  A
C1022      C1023   1.408       .  A
C1022      C1027   1.450       .  S
C1023      C1024   1.423       .  A
C1023      C1030   1.452       .  S
C1024      C1025   1.421       .  A
C1025      C1026   1.411       .  A
C1025      C1028   1.452       .  S
C1026      C1029   1.451       .  S
C1027      N1034   1.157   1_545  T
C1028      N1033   1.158       .  T
C1029      N1031   1.157       .  T
C1030      N1032   1.158       .  T
C1035      C1036   1.417       .  A
C1035      C1040   1.422       .  A
C1036      C1037   1.414       .  A
C1036      C1041   1.450       .  S
C1037      C1038   1.410       .  A
C1037      C1044   1.451       .  S
C1038      C1039   1.406       .  A
C1039      C1040   1.405       .  A
C1039      C1042   1.454       .  S
C1040      C1043   1.454       .  S
C1041      N1048   1.157       .  T
C1042      N1047   1.157       .  T
C1043      N1045   1.158       .  T
C1044      N1046   1.157       .  T
