geometry optimzed in LAMMPS
_audit_creation_date              2020-11-30 
_audit_creation_method            'lammps2cif' 
_symmetry_space_group_name_H-M    'P1' 
_symmetry_Int_Tables_number       1 
_symmetry_cell_setting            triclinic 
loop_ 
_symmetry_equiv_pos_as_xyz 
  x,y,z 
_cell_length_a                    22.82865216 
_cell_length_b                    36.67898899866799 
_cell_length_c                    88.99580090351292 
_cell_angle_alpha                 90.59428773737194 
_cell_angle_beta                  90.24228562521338 
_cell_angle_gamma                 89.92302773915658 
loop_ 
_atom_site_label 
_atom_site_type_symbol 
_atom_site_fract_x 
_atom_site_fract_y 
_atom_site_fract_z 
_atom_site_charge 
O1          O  0.08409307  0.49679411  0.35640178    -0.79800
O2          O  0.08053203  0.51563081  0.28458559    -0.64400
O3          O  0.08881491  0.48414781  0.32550482    -1.11000
C4          C  0.29129752  0.49981602  0.31915684     1.07100
O5          O  0.15535469  0.48086233  0.27740556    -0.77700
O6          O  0.18660667  0.43719417  0.30021430    -0.65200
Ni7        Ni  0.03352554  0.50394088  0.33950970     1.34900
C8          C  0.18532700  0.42538895  0.31357826     0.85900
O9          O  0.00116538  0.48899934  0.30326499    -0.78200
O10         O  0.97217561  0.51214042  0.32509723    -0.88500
C11         C  0.11086003  0.50031243  0.27435734     0.85400
O12         O  0.06388416  0.55122436  0.33635676    -0.66700
O13         O  0.27898497  0.48381489  0.30678002    -0.86000
C14         C  0.06443393  0.56773430  0.32387598     0.86300
C15         C  0.96117837  0.49974419  0.31204595     1.07800
H16         H  0.17160479  0.53562114  0.30569874     0.39600
O17         O  0.16403493  0.50993212  0.30687806    -1.08600
O18         O  0.19033312  0.44649044  0.32495450    -0.65300
Ni19       Ni  0.17075154  0.49777647  0.32759464     1.26300
O20         O  0.06483617  0.55112966  0.31107181    -0.65500
O21         O  0.25212170  0.51083895  0.32829719    -0.77800
C22         C  0.13797223  0.49131682  0.35894336     0.85700
O23         O  0.17622687  0.48889479  0.34867977    -0.65000
Ni24       Ni  0.21300635  0.48318586  0.29324851     1.27400
Ni25       Ni  0.08240010  0.50046094  0.30511713     1.26100
H26         H  0.08436446  0.45795896  0.32555715     0.40200
O27         O  0.61592068  0.50646509  0.35410513    -0.79800
O28         O  0.57151493  0.52411577  0.28394592    -0.64400
O29         O  0.58974800  0.48713547  0.32391963    -1.11000
C30         C  0.79343754  0.50013637  0.31249524     1.07100
O31         O  0.63837045  0.48457305  0.27660217    -0.77700
O32         O  0.70876989  0.44437526  0.29273960    -0.65200
Ni33       Ni  0.54871057  0.50713605  0.34067733     1.34900
C34         C  0.69045266  0.42627808  0.30378149     0.85900
O35         O  0.49500788  0.49964230  0.30487469    -0.78200
O36         O  0.47593916  0.50815527  0.32947899    -0.88500
C37         C  0.59917687  0.50766512  0.27346850     0.85400
O38         O  0.56429086  0.55684952  0.33615325    -0.66700
O39         O  0.77900267  0.50324440  0.29872239    -0.86000
C40         C  0.56311655  0.57369147  0.32376491     0.86300
C41         C  0.45959997  0.50278156  0.31588584     1.07800
H42         H  0.67055045  0.53836762  0.30595316     0.39600
O43         O  0.66153355  0.51275765  0.30480556    -1.08600
O44         O  0.67493939  0.44099013  0.31614359    -0.65300
Ni45       Ni  0.67330971  0.49052739  0.32374068     1.26300
O46         O  0.56601708  0.55753815  0.31096775    -0.65500
O47         O  0.75701017  0.49435890  0.32301101    -0.77800
C48         C  0.66130672  0.48618873  0.35472565     0.85700
O49         O  0.68211595  0.47055096  0.34318865    -0.65000
Ni50       Ni  0.70675645  0.49492061  0.28820057     1.27400
Ni51       Ni  0.57795706  0.50705761  0.30436210     1.26100
H52         H  0.57845919  0.46177661  0.32337627     0.40200
O53         O  0.25703543  0.52910163  0.40090802    -0.79800
O54         O  0.27073517  0.51803975  0.47039713    -0.64400
O55         O  0.27098173  0.49322093  0.42866742    -1.11000
C56         C  0.06577665  0.49337426  0.43468637     1.07100
O57         O  0.20625917  0.47486922  0.47567568    -0.77700
O58         O  0.16720740  0.43316335  0.45253879    -0.65200
Ni59       Ni  0.31974427  0.51765026  0.41466431     1.34900
C60         C  0.17745956  0.42264528  0.43914938     0.85900
O61         O  0.35760582  0.50410780  0.45082153    -0.78200
O62         O  0.38675738  0.50737622  0.42673345    -0.88500
C63         C  0.24359972  0.49861933  0.47983180     0.85400
O64         O  0.31576385  0.56559228  0.42324748    -0.66700
O65         O  0.07752926  0.48251616  0.44792666    -0.86000
C66         C  0.29926996  0.57846370  0.43586951     0.86300
C67         C  0.39722828  0.50431993  0.44073570     1.07800
H68         H  0.17720822  0.53351216  0.44872080     0.39600
O69         O  0.19024613  0.50859844  0.44744059    -1.08600
O70         O  0.18198352  0.44463110  0.42829031    -0.65300
Ni71       Ni  0.18799895  0.49698077  0.42645218     1.26300
O72         O  0.27841022  0.55875250  0.44626186    -0.65500
O73         O  0.10469399  0.50148919  0.42508307    -0.77800
C74         C  0.21777468  0.50711305  0.39629457     0.85700
O75         O  0.18988949  0.48732073  0.40539126    -0.65000
Ni76       Ni  0.14501363  0.47940735  0.46080115     1.27400
Ni77       Ni  0.27352234  0.50668208  0.44942770     1.26100
H78         H  0.28203089  0.46781727  0.42804555     0.40200
O79         O  0.74576042  0.50473599  0.39766109    -0.79800
O80         O  0.78640427  0.52101893  0.46808648    -0.64400
O81         O  0.76752225  0.48429383  0.42788949    -1.11000
C82         C  0.56463997  0.49978410  0.43921488     1.07100
O83         O  0.71866513  0.48267298  0.47557303    -0.77700
O84         O  0.65040875  0.44250076  0.45816935    -0.65200
Ni85       Ni  0.81159072  0.50300715  0.41150807     1.34900
C86         C  0.66446510  0.42508541  0.44638213     0.85900
O87         O  0.86168034  0.49515350  0.44750877    -0.78200
O88         O  0.88327716  0.50172735  0.42305793    -0.88500
C89         C  0.75936387  0.50501290  0.47856159     0.85400
O90         O  0.79938625  0.55296366  0.41657273    -0.66700
O91         O  0.57913801  0.50071537  0.45304061    -0.86000
C92         C  0.79759969  0.56970917  0.42912463     0.86300
C93         C  0.89803794  0.49697492  0.43674743     1.07800
H94         H  0.68828185  0.53661316  0.44667499     0.39600
O95         O  0.69639841  0.51080596  0.44727930    -1.08600
O96         O  0.67823327  0.44037890  0.43416501    -0.65300
Ni97       Ni  0.68423568  0.49026178  0.42783324     1.26300
O98         O  0.79239236  0.55373652  0.44171121    -0.65500
O99         O  0.60096076  0.49611182  0.42847643    -0.77800
C100        C  0.69807414  0.48677945  0.39671827     0.85700
O101        O  0.67491239  0.47195617  0.40798753    -0.65000
Ni102      Ni  0.65100668  0.49267658  0.46361434     1.27400
Ni103      Ni  0.77938041  0.50367993  0.44772739     1.26100
H104        H  0.77688223  0.45862311  0.42825048     0.40200
O105        O  0.47946846  0.73497828  0.35095497    -0.79800
O106        O  0.50157578  0.73225074  0.27945223    -0.64400
O107        O  0.49573255  0.76098784  0.32111439    -1.11000
C108        C  0.28932354  0.75097496  0.31414410     1.07100
O109        O  0.42573958  0.76658736  0.27287203    -0.77700
O110        O  0.37289102  0.80787645  0.29327419    -0.65200
Ni111      Ni  0.54158416  0.73738964  0.33615483     1.34900
C112        C  0.39216154  0.82435159  0.30485010     0.85900
O113        O  0.58410115  0.75326746  0.29987669    -0.78200
O114        O  0.60937408  0.73974984  0.32367528    -0.88500
C115        C  0.47018750  0.74761848  0.26942796     0.85400
O116        O  0.52713770  0.68830754  0.32951728    -0.66700
O117        O  0.29897278  0.75142848  0.30008368    -0.86000
C118        C  0.52380490  0.67480095  0.31628403     0.86300
C119        C  0.62217387  0.74820698  0.31022990     1.07800
H120        H  0.40982736  0.71278719  0.30285821     0.39600
O121        O  0.41783840  0.73861559  0.30245559    -1.08600
O122        O  0.40781983  0.80814221  0.31682505    -0.65300
Ni123      Ni  0.41291357  0.75742831  0.32263537     1.26300
O124        O  0.51479298  0.69412078  0.30464458    -0.65500
O125        O  0.32952994  0.75329544  0.32400802    -0.77800
C126        C  0.43745819  0.75711417  0.35352244     0.85700
O127        O  0.41224899  0.77418970  0.34299527    -0.65000
Ni128      Ni  0.36582409  0.75810184  0.28749670     1.27400
Ni129      Ni  0.50089622  0.74540633  0.30056699     1.26100
H130        H  0.50690594  0.78637831  0.32152057     0.40200
O131        O  0.97584342  0.71588538  0.35239078    -0.79800
O132        O  0.00241659  0.72747797  0.28340425    -0.64400
O133        O  0.99138329  0.75256707  0.32482138    -1.11000
C134        C  0.78917799  0.75136141  0.31449874     1.07100
O135        O  0.94106039  0.77159487  0.27737240    -0.77700
O136        O  0.90080436  0.81218316  0.29996093    -0.65200
Ni137      Ni  0.04007616  0.72925336  0.33940934     1.34900
C138        C  0.90368575  0.82156325  0.31369636     0.85900
O139        O  0.08294806  0.74347274  0.30402880    -0.78200
O140        O  0.10959523  0.74123784  0.32832373    -0.88500
C141        C  0.97595101  0.74616981  0.27365350     0.85400
O142        O  0.04020370  0.68141650  0.33067269    -0.66700
O143        O  0.80483327  0.76606323  0.30224462    -0.86000
C144        C  0.02545761  0.66842831  0.31790081     0.86300
C145        C  0.12140029  0.74435167  0.31439865     1.07800
H146        H  0.90406138  0.71205833  0.30226317     0.39600
O147        O  0.91632708  0.73681185  0.30432979    -1.08600
O148        O  0.89871399  0.79887127  0.32430393    -0.65300
Ni149      Ni  0.90792174  0.74630676  0.32521523     1.26300
O150        O  0.00505146  0.68784982  0.30734719    -0.65500
O151        O  0.82505017  0.73993304  0.32440259    -0.77800
C152        C  0.92935839  0.73341405  0.35574450     0.85700
O153        O  0.90227795  0.75281557  0.34631212    -0.65000
Ni154      Ni  0.87572994  0.76791632  0.29070613     1.27400
Ni155      Ni  0.99955064  0.73962857  0.30411705     1.26100
H156        H  0.00026137  0.77824767  0.32568872     0.40200
O157        O  0.37452752  0.74542925  0.39824581    -0.79800
O158        O  0.34742025  0.73117623  0.46901883    -0.64400
O159        O  0.35810767  0.76620934  0.42865599    -1.11000
C160        C  0.56323244  0.75657748  0.43866745     1.07100
O161        O  0.41414369  0.77062689  0.47670636    -0.77700
O162        O  0.47388755  0.81241919  0.45853025    -0.65200
Ni163      Ni  0.31238605  0.74483212  0.41287331     1.34900
C164        C  0.45692316  0.82907299  0.44692417     0.85900
O165        O  0.26840125  0.75465754  0.44923579    -0.78200
O166        O  0.24321347  0.74316636  0.42526875    -0.88500
C167        C  0.37347429  0.74840022  0.47953503     0.85400
O168        O  0.33266820  0.69600767  0.41748547    -0.66700
O169        O  0.54980019  0.75652511  0.45251255    -0.60400
C170        C  0.33600691  0.67984101  0.42996976     0.86300
C171        C  0.23042692  0.74981885  0.43897190     1.07800
H172        H  0.44334510  0.71700039  0.44683490     0.39600
O173        O  0.43367047  0.74261135  0.44752874    -1.08600
O174        O  0.44473982  0.81313570  0.43450162    -0.65300
Ni175      Ni  0.44186990  0.76265182  0.42789916     1.26300
O176        O  0.33948093  0.69661437  0.44261545    -0.65500
O177        O  0.52591342  0.75904709  0.42800501    -0.77800
C178        C  0.42077123  0.76427452  0.39656231     0.85700
O179        O  0.44683483  0.77963460  0.40759858    -0.65000
Ni180      Ni  0.47956970  0.76255160  0.46372921     1.27400
Ni181      Ni  0.35067329  0.74759060  0.44861877     1.26100
H182        H  0.34684219  0.79160180  0.42903210     0.40200
O183        O  0.87034695  0.71613998  0.40199823    -0.79800
O184        O  0.85432153  0.73682234  0.47272422    -0.64400
O185        O  0.85830577  0.75420358  0.43003765    -1.11000
C186        C  0.06276838  0.75051095  0.43797385     1.07100
O187        O  0.91627740  0.78248679  0.47544493    -0.77700
O188        O  0.96358330  0.81599847  0.45297366    -0.65200
Ni189      Ni  0.80883747  0.73013303  0.41579812     1.34900
C190        C  0.95217134  0.82373143  0.43946577     0.85900
O191        O  0.76882528  0.74887671  0.45177151    -0.78200
O192        O  0.74183227  0.74243917  0.42751666    -0.88500
C193        C  0.88267269  0.75914320  0.48114496     0.85400
O194        O  0.81270643  0.68351439  0.42480243    -0.66700
O195        O  0.05096911  0.76342221  0.45099592    -0.86000
C196        C  0.82674836  0.67136786  0.43765502     0.86300
C197        C  0.73025572  0.74804863  0.44132478     1.07800
H198        H  0.94776684  0.71556545  0.45188069     0.39600
O199        O  0.93608223  0.74035849  0.44982569    -1.08600
O200        O  0.94928625  0.80001462  0.42906467    -0.65300
Ni201      Ni  0.94129477  0.74774685  0.42872268     1.26300
O202        O  0.84482551  0.69164342  0.44849878    -0.65500
O203        O  0.02405392  0.74148418  0.42833560    -0.77800
C204        C  0.91643152  0.73328853  0.39835731     0.85700
O205        O  0.94411346  0.75308347  0.40761506    -0.65000
Ni206      Ni  0.98131005  0.77160110  0.46267939     1.27400
Ni207      Ni  0.85279904  0.74415298  0.45114801     1.26100
H208        H  0.84925828  0.77978178  0.42897750     0.40200
O209        O  0.23029914  0.23070129  0.35016340    -0.79800
O210        O  0.26394790  0.23955494  0.27952462    -0.64400
O211        O  0.24678650  0.26218923  0.32129704    -1.11000
C212        C  0.04439510  0.25625179  0.31297971     1.07100
O213        O  0.17734194  0.25809238  0.27076203    -0.77700
O214        O  0.15259712  0.30851344  0.29180417    -0.65200
Ni215      Ni  0.29382698  0.23816889  0.33606795     1.34900
C216        C  0.15758220  0.32374688  0.30459742     0.85900
O217        O  0.33841414  0.26072015  0.30084783    -0.78200
O218        O  0.36344717  0.24463659  0.32430792    -0.88500
C219        C  0.22967680  0.24770385  0.26879373     0.85400
O220        O  0.28397711  0.18993841  0.32811841    -0.66700
O221        O  0.05749148  0.26849777  0.30017953    -0.86000
C222        C  0.28176574  0.17801749  0.31463544     0.86300
C223        C  0.37640820  0.25490340  0.31108710     1.07800
H224        H  0.16706136  0.21318970  0.30061832     0.39600
O225        O  0.17340916  0.23919635  0.30125574    -1.08600
O226        O  0.15404139  0.30637971  0.31702386    -0.65300
Ni227      Ni  0.16459654  0.25453908  0.32183507     1.26300
O228        O  0.27349722  0.19861018  0.30339982    -0.65500
O229        O  0.08259120  0.24548698  0.32224879    -0.77800
C230        C  0.18476646  0.24979202  0.35289165     0.85700
O231        O  0.15907966  0.26765035  0.34263578    -0.65000
Ni232      Ni  0.12251455  0.26210871  0.28681993     1.27400
Ni233      Ni  0.25634089  0.24979289  0.30056351     1.26100
H234        H  0.25485633  0.28792268  0.32243589     0.40200
O235        O  0.73607719  0.23490699  0.35167172    -0.79800
O236        O  0.75960971  0.23072839  0.28099604    -0.64400
O237        O  0.74590918  0.26221640  0.32202668    -1.11000
C238        C  0.54459781  0.25394287  0.31336253     1.07100
O239        O  0.68698489  0.26656352  0.27306459    -0.77700
O240        O  0.65635346  0.31269818  0.29542299    -0.65200
Ni241      Ni  0.79699123  0.24494856  0.33750581     1.34900
C242        C  0.65593335  0.32448849  0.30887931     0.85900
O243        O  0.83850115  0.25298926  0.30126772    -0.78200
O244        O  0.86482648  0.25336386  0.32555508    -0.88500
C245        C  0.73137715  0.24651115  0.27052617     0.85400
O246        O  0.79390033  0.19541817  0.33152290    -0.66700
O247        O  0.55912713  0.26897650  0.30108027    -0.86000
C248        C  0.78168114  0.17830898  0.31948688     0.86300
C249        C  0.87675661  0.25533724  0.31165869     1.07800
H250        H  0.66266379  0.21347536  0.30089832     0.39600
O251        O  0.67242694  0.23892983  0.30223280    -1.08600
O252        O  0.64809768  0.30360077  0.31998972    -0.65300
Ni253      Ni  0.66349582  0.25215244  0.32285873     1.26300
O254        O  0.76710067  0.19395950  0.30718078    -0.65500
O255        O  0.58187935  0.24167776  0.32265993    -0.77800
C256        C  0.68578878  0.24857420  0.35393822     0.85700
O257        O  0.65629347  0.26339700  0.34363696    -0.65000
Ni258      Ni  0.62721880  0.26693380  0.28822616     1.27400
Ni259      Ni  0.75549394  0.24523640  0.30170034     1.26100
H260        H  0.75172332  0.28828560  0.32191399     0.40200
O261        O  0.12285070  0.22679406  0.39870191    -0.79800
O262        O  0.08939574  0.23606199  0.46913118    -0.64400
O263        O  0.10572144  0.25804484  0.42768747    -1.11000
C264        C  0.30865556  0.25423611  0.43550075     1.07100
O265        O  0.17856462  0.24952240  0.47787467    -0.77700
O266        O  0.19860513  0.30280887  0.45821587    -0.65200
Ni267      Ni  0.05895718  0.23309134  0.41295408     1.34900
C268        C  0.19353384  0.31916703  0.44579038     0.85900
O269        O  0.01518636  0.25783818  0.44815067    -0.78200
O270        O  0.98924309  0.23894651  0.42495506    -0.88500
C271        C  0.12538222  0.24128710  0.47980235     0.85400
O272        O  0.06992162  0.18477975  0.42059194    -0.66700
O273        O  0.29511340  0.26609717  0.44841437    -0.86000
C274        C  0.06995300  0.17374429  0.43412779     0.86300
C275        C  0.97673814  0.25080245  0.43810297     1.07800
H276        H  0.18581527  0.20847517  0.44737449     0.39600
O277        O  0.17989204  0.23455873  0.44722290    -1.08600
O278        O  0.19757214  0.30285323  0.43295037    -0.65300
Ni279      Ni  0.18805762  0.25115178  0.42697912     1.26300
O280        O  0.07801184  0.19501558  0.44531278    -0.65500
O281        O  0.27059981  0.24277602  0.42623669    -0.77800
C282        C  0.16688094  0.24722326  0.39605906     0.85700
O283        O  0.19207339  0.26539130  0.40645578    -0.65000
Ni284      Ni  0.23162432  0.25660291  0.46182757     1.27400
Ni285      Ni  0.09691401  0.24597958  0.44825083     1.26100
H286        H  0.09696555  0.28368128  0.42667102     0.40200
O287        O  0.62068370  0.22539221  0.39873655    -0.79800
O288        O  0.58656894  0.25030758  0.46895038    -0.64400
O289        O  0.60794783  0.26159246  0.42686005    -1.11000
C290        C  0.80823813  0.25109981  0.43649169     1.07100
O291        O  0.67274254  0.27150149  0.47717374    -0.77700
O292        O  0.69763094  0.31393688  0.45371088    -0.65200
Ni293      Ni  0.55873477  0.23573408  0.41287849     1.34900
C294        C  0.69750406  0.32383272  0.44009620     0.85900
O295        O  0.51476409  0.26828178  0.44686381    -0.78200
O296        O  0.48947780  0.24446326  0.42451220    -0.88500
C297        C  0.62044467  0.26135972  0.47935739     0.85400
O298        O  0.56904713  0.18945677  0.42204546    -0.66700
O299        O  0.79442675  0.27079745  0.44774614    -0.86000
C300        C  0.56779792  0.18063502  0.43584387     0.86300
C301        C  0.47656910  0.25898186  0.43710480     1.07800
H302        H  0.68258335  0.21625543  0.45040868     0.39600
O303        O  0.67774433  0.24184303  0.44823864    -1.08600
O304        O  0.70644150  0.30151615  0.42924859    -0.65300
Ni305      Ni  0.68935139  0.24955426  0.42731071     1.26300
O306        O  0.57489505  0.20364221  0.44654069    -0.65500
O307        O  0.76997537  0.23631915  0.42812695    -0.77800
C308        C  0.66940569  0.24098262  0.39628905     0.85700
O309        O  0.69880589  0.25657069  0.40650729    -0.65000
Ni310      Ni  0.72848979  0.26985928  0.46127463     1.27400
Ni311      Ni  0.59584906  0.25495932  0.44784726     1.26100
H312        H  0.60298885  0.28719794  0.42475386     0.40200
O313        O  0.35822842  0.02050991  0.35338864    -0.79800
O314        O  0.33117865  0.02350817  0.28329814    -0.64400
O315        O  0.34315185  0.99137794  0.32396439    -1.11000
C316        C  0.54465686  0.99564266  0.31459983     1.07100
O317        O  0.39345766  0.98013908  0.27637118    -0.77700
O318        O  0.43169477  0.93630513  0.29767741    -0.65200
Ni319      Ni  0.29474595  0.01048881  0.33967089     1.34900
C320        C  0.43074584  0.92541354  0.31112483     0.85900
O321        O  0.25044938  0.00416323  0.30358844    -0.78200
O322        O  0.22534687  0.00232073  0.32795284    -0.88500
C323        C  0.35773072  0.00542075  0.27312244     0.85400
O324        O  0.29788008  0.05979842  0.33367822    -0.66700
O325        O  0.52929126  0.98141658  0.30203961    -0.86000
C326        C  0.31119596  0.07616330  0.32170993     0.86300
C327        C  0.21267898  0.00178923  0.31400868     1.07800
H328        H  0.42936471  0.03658174  0.30293516     0.39600
O329        O  0.41725074  0.01158006  0.30423017    -1.08600
O330        O  0.43787914  0.94697433  0.32218332    -0.65300
Ni331      Ni  0.42627881  0.99892549  0.32464923     1.26300
O332        O  0.32703612  0.05985242  0.30959408    -0.65500
O333        O  0.50832742  0.00708219  0.32433067    -0.77800
C334        C  0.40780638  0.00549427  0.35528387     0.85700
O335        O  0.43388959  0.98827375  0.34506588    -0.65000
Ni336      Ni  0.45836370  0.98169995  0.29004692     1.27400
Ni337      Ni  0.33393939  0.00851895  0.30382572     1.26100
H338        H  0.33529254  0.96551644  0.32366814     0.40200
O339        O  0.86263540  0.02725695  0.34966876    -0.79800
O340        O  0.83148961  0.00960918  0.28083270    -0.64400
O341        O  0.83897281  0.98982141  0.32259019    -1.11000
C342        C  0.04501178  0.99716862  0.31473870     1.07100
O343        O  0.90387706  0.97158652  0.27554519    -0.77700
O344        O  0.96439205  0.93685666  0.29642291    -0.65200
Ni345      Ni  0.79538812  0.01747602  0.33677276     1.34900
C346        C  0.94324921  0.92216403  0.30801626     0.85900
O347        O  0.74990535  0.99359271  0.30149460    -0.78200
O348        O  0.72503631  0.00824063  0.32535842    -0.88500
C349        C  0.86207740  0.99191803  0.27142169     0.85400
O350        O  0.80259546  0.06464201  0.32786286    -0.66700
O351        O  0.03398304  0.99640483  0.30071230    -0.86000
C352        C  0.80956037  0.07484254  0.31436343     0.86300
C353        C  0.71214955  0.99839460  0.31190035     1.07800
H354        H  0.92486487  0.03279996  0.30331129     0.39600
O355        O  0.91626722  0.00701964  0.30346457    -1.08600
O356        O  0.92443189  0.94021093  0.31934927    -0.65300
Ni357      Ni  0.92184683  0.99209644  0.32393227     1.26300
O358        O  0.82154025  0.05271584  0.30375557    -0.65500
O359        O  0.00590394  0.99469834  0.32485739    -0.77800
C360        C  0.90084634  0.00408309  0.35394130     0.85700
O361        O  0.92158878  0.98052591  0.34483590    -0.65000
Ni362      Ni  0.96649206  0.98499179  0.28888415     1.27400
Ni363      Ni  0.83310329  0.00069063  0.30185079     1.26100
H364        H  0.82672426  0.96481759  0.32379110     0.40200
O365        O  0.48402073  0.02205190  0.39877642    -0.79800
O366        O  0.51332528  0.02871262  0.46859505    -0.64400
O367        O  0.50117711  0.99381468  0.42804599    -1.11000
C368        C  0.29963427  0.99905834  0.43702803     1.07100
O369        O  0.45021777  0.98628759  0.47553423    -0.77700
O370        O  0.41129966  0.94091441  0.45464713    -0.65200
Ni371      Ni  0.54838019  0.01193636  0.41215385     1.34900
C372        C  0.41361959  0.92911367  0.44124580     0.85900
O373        O  0.59448970  0.00776346  0.44811312    -0.78200
O374        O  0.61796516  0.00345068  0.42361493    -0.88500
C375        C  0.48538793  0.01196453  0.47876628     0.85400
O376        O  0.54668020  0.06149424  0.41824182    -0.66700
O377        O  0.31421830  0.98664036  0.44987592    -0.86000
C378        C  0.53358395  0.07873497  0.43016231     0.86300
C379        C  0.63152519  0.00386558  0.43750626     1.07800
H380        H  0.41509309  0.04085531  0.44874045     0.39600
O381        O  0.42709068  0.01569500  0.44763820    -1.08600
O382        O  0.40696005  0.94975087  0.43008855    -0.65300
Ni383      Ni  0.41830207  0.00122441  0.42728527     1.26300
O384        O  0.51751744  0.06333567  0.44229911    -0.65500
O385        O  0.33646136  0.00933619  0.42734209    -0.77800
C386        C  0.43575652  0.00553679  0.39678595     0.85700
O387        O  0.41109615  0.98818694  0.40701236    -0.65000
Ni388      Ni  0.38520236  0.98727541  0.46193119     1.27400
Ni389      Ni  0.51062750  0.01235807  0.44808828     1.26100
H390        H  0.50929752  0.96798385  0.42840841     0.40200
O391        O  0.98682815  0.00753291  0.39725190    -0.79800
O392        O  0.00954890  0.02346664  0.46795680    -0.64400
O393        O  0.00494774  0.98609645  0.42741343    -1.11000
C394        C  0.79879768  0.99493753  0.43552696     1.07100
O395        O  0.94596054  0.98097396  0.47385748    -0.77700
O396        O  0.88391747  0.93978353  0.45557795    -0.65200
Ni397      Ni  0.05101133  0.00466821  0.41155962     1.34900
C398        C  0.90478503  0.92285534  0.44436979     0.85900
O399        O  0.09333962  0.00139194  0.44846194    -0.78200
O400        O  0.11999618  0.00280736  0.42411234    -0.88500
C401        C  0.98222610  0.00519868  0.47784881     0.85400
O402        O  0.03949659  0.05459421  0.41623109    -0.66700
O403        O  0.81109382  0.99694195  0.44947819    -0.86000
C404        C  0.03093953  0.07225146  0.42832456     0.86300
C405        C  0.13188185  0.00104124  0.43814957     1.07800
H406        H  0.91618368  0.03514094  0.44450707     0.39600
O407        O  0.92696266  0.00976024  0.44536249    -1.08600
O408        O  0.92038666  0.93841009  0.43237207    -0.65300
Ni409      Ni  0.92151276  0.98819280  0.42581466     1.26300
O410        O  0.01992676  0.05717147  0.44094559    -0.65500
O411        O  0.83704417  0.99049731  0.42519964    -0.77800
C412        C  0.94408990  0.98581890  0.39499282     0.85700
O413        O  0.92026396  0.96894299  0.40573443    -0.65000
Ni414      Ni  0.88033899  0.98989135  0.46106314     1.27400
Ni415      Ni  0.01017365  0.00648646  0.44728134     1.26100
H416        H  0.01686590  0.96090597  0.42822169     0.40200
O417        O  0.28525389  0.51525693  0.52586575    -0.79800
O418        O  0.32760688  0.53029226  0.59349287    -0.64400
O419        O  0.30912585  0.48918740  0.55442056    -1.11000
C420        C  0.10653092  0.50203504  0.56512674     1.07100
O421        O  0.26086879  0.49379737  0.60337283    -0.77700
O422        O  0.20071357  0.44704903  0.58556668    -0.65200
Ni423      Ni  0.35354206  0.50791290  0.53800724     1.34900
C424        C  0.20574093  0.42904562  0.57340004     0.85900
O425        O  0.40359272  0.50713287  0.57324376    -0.78200
O426        O  0.42616849  0.50227930  0.54875706    -0.88500
C427        C  0.30660028  0.51350684  0.60458323     0.85400
O428        O  0.34961824  0.55854155  0.54286176    -0.66700
O429        O  0.12144661  0.50046480  0.57895535    -0.86000
C430        C  0.33361235  0.57622178  0.55442707     0.86300
C431        C  0.44041186  0.50350673  0.56262092     1.07800
H432        H  0.22567701  0.54029603  0.57272916     0.39600
O433        O  0.23650690  0.51490762  0.57349384    -1.08600
O434        O  0.21503974  0.44378302  0.56065004    -0.65300
Ni435      Ni  0.22550830  0.49396051  0.55394021     1.26300
O436        O  0.32221090  0.56111144  0.56687696    -0.65500
O437        O  0.14254148  0.50075530  0.55422159    -0.77800
C438        C  0.24572581  0.49197022  0.52299535     0.85700
O439        O  0.21960843  0.47564376  0.53359825    -0.65000
Ni440      Ni  0.19347270  0.49750777  0.59020341     1.27400
Ni441      Ni  0.31994523  0.51118646  0.57368529     1.26100
H442        H  0.31896734  0.46366575  0.55525465     0.40200
O443        O  0.80508681  0.51846437  0.52508436    -0.79800
O444        O  0.82027855  0.50250579  0.59564013    -0.64400
O445        O  0.81500263  0.48585543  0.55348669    -1.11000
C446        C  0.60866603  0.49766014  0.56157568     1.07100
O447        O  0.74998085  0.46273058  0.59994196    -0.77700
O448        O  0.68607165  0.43215064  0.57766204    -0.65200
Ni449      Ni  0.86088485  0.51765145  0.54133107     1.34900
C450        C  0.70084517  0.41957082  0.56489930     0.85900
O451        O  0.90150155  0.48594473  0.57540498    -0.78200
O452        O  0.92551513  0.51885552  0.55538947    -0.88500
C453        C  0.79259106  0.48216732  0.60446002     0.85400
O454        O  0.82621534  0.56065682  0.54968771    -0.66700
O455        O  0.61958088  0.49291073  0.57549803    -0.86000
C456        C  0.82508222  0.56976481  0.56349478     0.86300
C457        C  0.93922992  0.50107106  0.56711958     1.07800
H458        H  0.72920707  0.52845255  0.57421007     0.39600
O459        O  0.73721394  0.50271349  0.57306243    -1.08600
O460        O  0.72190560  0.43930278  0.55453732    -0.65300
Ni461      Ni  0.73163072  0.49143471  0.55216793     1.26300
O462        O  0.83274173  0.54686146  0.57390121    -0.65500
O463        O  0.64788939  0.49757743  0.55138596    -0.77800
C464        C  0.76137560  0.49874569  0.52149731     0.85700
O465        O  0.73076620  0.48204549  0.53110777    -0.65000
Ni466      Ni  0.68707572  0.47887708  0.58696811     1.27400
Ni467      Ni  0.81946790  0.49473928  0.57463013     1.26100
H468        H  0.82619949  0.46092253  0.55134595     0.40200
O469        O  0.34447590  0.53306301  0.72517829    -0.79800
O470        O  0.32019475  0.53344306  0.65681592    -0.64400
O471        O  0.33039005  0.50064018  0.69692135    -1.11000
C472        C  0.53388438  0.50956036  0.68754613     1.07100
O473        O  0.38145855  0.48996413  0.64915830    -0.77700
O474        O  0.43820644  0.44664951  0.67000905    -0.65200
Ni475      Ni  0.28050627  0.52044027  0.71213313     1.34900
C476        C  0.43395893  0.43465216  0.68335009     0.85900
O477        O  0.23945447  0.51576831  0.67646166    -0.78200
O478        O  0.21192619  0.50947550  0.70046034    -0.88500
C479        C  0.33975317  0.51243026  0.64665110     0.85400
O480        O  0.27975601  0.56971464  0.70570531    -0.66700
O481        O  0.51970239  0.50077012  0.67407116    -0.86000
C482        C  0.30141121  0.58603186  0.69455621     0.86300
C483        C  0.20067444  0.51103255  0.68644853     1.07800
H484        H  0.41813631  0.54597102  0.67710933     0.39600
O485        O  0.40609989  0.52079296  0.67775958    -1.08600
O486        O  0.42522197  0.45536633  0.69466929    -0.65300
Ni487      Ni  0.41368230  0.50696683  0.69817037     1.26300
O488        O  0.32096251  0.56948123  0.68294531    -0.65500
O489        O  0.49699587  0.51398717  0.69819655    -0.77800
C490        C  0.38651600  0.51235925  0.72885507     0.85700
O491        O  0.41662397  0.49546093  0.71904208    -0.65000
Ni492      Ni  0.44853725  0.49530902  0.66257544     1.27400
Ni493      Ni  0.32308167  0.51845458  0.67703333     1.26100
H494        H  0.32195277  0.47484318  0.69647744     0.40200
O495        O  0.85269139  0.52797426  0.72235614    -0.79800
O496        O  0.81931040  0.52919112  0.65314185    -0.64400
O497        O  0.82731465  0.49938963  0.69382686    -1.11000
C498        C  0.03315759  0.50587877  0.68575770     1.07100
O499        O  0.88914026  0.49090435  0.64592009    -0.77700
O500        O  0.95041304  0.45090534  0.66500200    -0.65200
Ni501      Ni  0.78675371  0.52681448  0.70887995     1.34900
C502        C  0.93307717  0.43391100  0.67643301     0.85900
O503        O  0.73796896  0.51059550  0.67329925    -0.78200
O504        O  0.71581134  0.52651094  0.69710905    -0.88500
C505        C  0.84488889  0.51069076  0.64308686     0.85400
O506        O  0.80912122  0.57419077  0.70222066    -0.66700
O507        O  0.02210313  0.50801187  0.67171510    -0.86000
C508        C  0.81589459  0.58682851  0.68912331     0.86300
C509        C  0.70117717  0.51715672  0.68375280     1.07800
H510        H  0.91516206  0.54502376  0.67601800     0.39600
O511        O  0.90494459  0.51953461  0.67517133    -1.08600
O512        O  0.91421590  0.44948248  0.68837661    -0.65300
Ni513      Ni  0.91059216  0.50008175  0.69492774     1.26300
O514        O  0.81490251  0.56690582  0.67743950    -0.65500
O515        O  0.99415258  0.50193656  0.69577455    -0.77800
C516        C  0.88660192  0.50158147  0.72542950     0.85700
O517        O  0.91059752  0.48283869  0.71508240    -0.65000
Ni518      Ni  0.95328802  0.50050862  0.65955457     1.27400
Ni519      Ni  0.82150526  0.51536878  0.67362513     1.26100
H520        H  0.81365104  0.47450972  0.69426202     0.40200
O521        O  0.05006629  0.23951267  0.72658319    -0.79800
O522        O  0.07238485  0.23552102  0.65735424    -0.64400
O523        O  0.06377704  0.26859818  0.69785338    -1.11000
C524        C  0.85969386  0.25803452  0.68905059     1.07100
O525        O  0.00769244  0.27738211  0.65045797    -0.77700
O526        O  0.94953068  0.31906166  0.67098266    -0.65200
Ni527      Ni  0.11310590  0.24871181  0.71308872     1.34900
C528        C  0.95685371  0.33242385  0.68408607     0.85900
O529        O  0.15377056  0.25505443  0.67703400    -0.78200
O530        O  0.18139992  0.25628581  0.70125108    -0.88500
C531        C  0.04935448  0.25541052  0.64739707     0.85400
O532        O  0.10797266  0.19920592  0.70689476    -0.66700
O533        O  0.87211207  0.26387344  0.67531009    -0.86000
C534        C  0.09068297  0.18298590  0.69506459     0.86300
C535        C  0.19259718  0.25734417  0.68727822     1.07800
H536        H  0.97654573  0.22124634  0.67838568     0.39600
O537        O  0.98740363  0.24668915  0.67882183    -1.08600
O538        O  0.96910284  0.31322924  0.69542967    -0.65300
Ni539      Ni  0.98076088  0.26225217  0.69915798     1.26300
O540        O  0.07572153  0.19952791  0.68310991    -0.65500
O541        O  0.89777658  0.25541275  0.69951678    -0.77800
C542        C  0.00704619  0.25998191  0.72975362     0.85700
O543        O  0.97807467  0.27625582  0.71972192    -0.65000
Ni544      Ni  0.94205709  0.27011899  0.66372670     1.27400
Ni545      Ni  0.07036335  0.25060478  0.67776977     1.26100
H546        H  0.07235608  0.29438077  0.69762941     0.40200
O547        O  0.54340778  0.24473144  0.72523899    -0.79800
O548        O  0.57320067  0.22561909  0.65786078    -0.64400
O549        O  0.56412358  0.26999973  0.69640602    -1.11000
C550        C  0.35963779  0.26292854  0.68836482     1.07100
O551        O  0.50375670  0.26033624  0.64781019    -0.77700
O552        O  0.45580729  0.31238269  0.66563344    -0.65200
Ni553      Ni  0.60977103  0.25090872  0.71257400     1.34900
C554        C  0.46298655  0.33122697  0.67753468     0.85900
O555        O  0.65413827  0.24978114  0.67685700    -0.78200
O556        O  0.67999431  0.25552025  0.70118457    -0.88500
C557        C  0.54822179  0.23955780  0.64661535     0.85400
O558        O  0.60469618  0.20005768  0.70806746    -0.66700
O559        O  0.37175737  0.26397504  0.67440681    -0.86000
C560        C  0.58717621  0.18216958  0.69667869     0.86300
C561        C  0.69232303  0.25360363  0.68725276     1.07800
H562        H  0.47493213  0.21939694  0.67969794     0.39600
O563        O  0.48660670  0.24449599  0.67848173    -1.08600
O564        O  0.47187113  0.31719876  0.69049421    -0.65300
Ni565      Ni  0.48087362  0.26727657  0.69785597     1.26300
O566        O  0.57286088  0.19720014  0.68440648    -0.65500
O567        O  0.39792828  0.26271498  0.69877912    -0.77800
C568        C  0.50558335  0.26884604  0.72839567     0.85700
O569        O  0.48028280  0.28669683  0.71802578    -0.65000
Ni570      Ni  0.44069921  0.26200042  0.66214775     1.27400
Ni571      Ni  0.57019974  0.24675893  0.67731073     1.26100
H572        H  0.57529746  0.29521386  0.69526035     0.40200
O573        O  0.06749676  0.23317435  0.52468100    -0.79800
O574        O  0.04018757  0.24205826  0.59536645    -0.64400
O575        O  0.05544852  0.26164425  0.55375933    -1.11000
C576        C  0.25975684  0.24897256  0.56472401     1.07100
O577        O  0.11097522  0.28057642  0.60196118    -0.77700
O578        O  0.17514457  0.31558906  0.58065309    -0.65200
Ni579      Ni  0.00956532  0.23255471  0.54003597     1.34900
C580        C  0.16637669  0.32727406  0.56741661     0.85900
O581        O  0.96399590  0.25929011  0.57417082    -0.78200
O582        O  0.94241057  0.22938711  0.55299032    -0.88500
C583        C  0.06597995  0.26167332  0.60507893     0.85400
O584        O  0.04198661  0.18835396  0.54713335    -0.66700
O585        O  0.24690203  0.25633849  0.57835858    -0.86000
C586        C  0.04399440  0.17705720  0.56053854     0.86300
C587        C  0.92719967  0.24587785  0.56496960     1.07800
H588        H  0.13736203  0.21791497  0.57545434     0.39600
O589        O  0.12906692  0.24358412  0.57434790    -1.08600
O590        O  0.15063061  0.30664358  0.55652765    -0.65300
Ni591      Ni  0.13900329  0.25467380  0.55369115     1.26300
O592        O  0.03608965  0.19818640  0.57184922    -0.65500
O593        O  0.22200317  0.24686579  0.55416637    -0.77800
C594        C  0.11561277  0.24934769  0.52240984     0.85700
O595        O  0.14587323  0.26391719  0.53281180    -0.65000
Ni596      Ni  0.17635178  0.26788314  0.58917574     1.27400
Ni597      Ni  0.04630093  0.25080420  0.57452649     1.26100
H598        H  0.04600536  0.28701397  0.55218149     0.40200
O599        O  0.55764977  0.25938921  0.52371990    -0.79800
O600        O  0.54123961  0.22429175  0.59316467    -0.64400
O601        O  0.55782783  0.26644637  0.55462805    -1.11000
C602        C  0.75918297  0.24543673  0.56229944     1.07100
O603        O  0.61824973  0.25231435  0.60333079    -0.77700
O604        O  0.65844040  0.30267162  0.58417559    -0.65200
Ni605      Ni  0.50441421  0.24885068  0.53940259     1.34900
C606        C  0.66201201  0.31912204  0.57176493     0.85900
O607        O  0.46727000  0.25658947  0.57515985    -0.78200
O608        O  0.44081241  0.23676172  0.55262982    -0.88500
C609        C  0.56921105  0.23620771  0.60444285     0.85400
O610        O  0.53619452  0.20144974  0.54077692    -0.66700
O611        O  0.74644358  0.25560964  0.57561316    -0.86000
C612        C  0.54049884  0.18241059  0.55252986     0.86300
C613        C  0.42814870  0.24738901  0.56581035     1.07800
H614        H  0.63652605  0.20833243  0.57222538     0.39600
O615        O  0.62999065  0.23435616  0.57261369    -1.08600
O616        O  0.66194684  0.30255337  0.55908837    -0.65300
Ni617      Ni  0.63982478  0.25329866  0.55293085     1.26300
O618        O  0.53420116  0.19573752  0.56579130    -0.65500
O619        O  0.72061895  0.23925917  0.55221940    -0.77800
C620        C  0.61112226  0.26746123  0.52201610     0.85700
O621        O  0.64754195  0.26992612  0.53278620    -0.65000
Ni622      Ni  0.67856304  0.25356503  0.58830772     1.27400
Ni623      Ni  0.54841178  0.24474064  0.57385591     1.26100
H624        H  0.55335595  0.29256127  0.55559578     0.40200
O625        O  0.01075094  0.02272567  0.52486084    -0.79800
O626        O  0.08285400  0.02526871  0.58929765    -0.64400
O627        O  0.04743802  0.98932806  0.55022443    -1.11000
C628        C  0.84758315  0.99825546  0.56720690     1.07100
O629        O  0.02108576  0.98596633  0.59949523    -0.77700
O630        O  0.95193113  0.94175459  0.58284088    -0.65200
Ni631      Ni  0.08476023  0.01043340  0.53330176     1.34900
C632        C  0.95224825  0.92522297  0.57024999     0.85900
O633        O  0.15265266  0.00656102  0.56610604    -0.78200
O634        O  0.16139237  0.99975316  0.54105487    -0.88500
C635        C  0.06368845  0.00826620  0.60055632     0.85400
O636        O  0.09087183  0.05989541  0.53991543    -0.66700
O637        O  0.87043780  0.99603142  0.58028772    -0.86000
C638        C  0.07719714  0.07611547  0.55202555     0.86300
C639        C  0.18378052  0.00213162  0.55418134     1.07800
H640        H  0.97166353  0.03640633  0.57185469     0.39600
O641        O  0.98313205  0.01104498  0.57167316    -1.08600
O642        O  0.95656208  0.94157475  0.55762196    -0.65300
Ni643      Ni  0.96280859  0.99314371  0.55209119     1.26300
O644        O  0.06494357  0.05932150  0.56398959    -0.65500
O645        O  0.87811322  0.99816918  0.55506344    -0.77800
C646        C  0.97471734  0.99817863  0.52106195     0.85700
O647        O  0.94997062  0.97925040  0.53122842    -0.65000
Ni648      Ni  0.94763945  0.99142076  0.58896805     1.27400
Ni649      Ni  0.06746671  0.00861319  0.56940904     1.26100
H650        H  0.05787848  0.96378723  0.55016656     0.40200
O651        O  0.50880758  0.03661693  0.52553361    -0.79800
O652        O  0.58595102  0.01342732  0.59051173    -0.64400
O653        O  0.54660102  0.99681171  0.54952588    -1.11000
C654        C  0.34762908  0.00173339  0.56776312     1.07100
O655        O  0.52013921  0.97371726  0.59866594    -0.77700
O656        O  0.44710841  0.93826645  0.57875981    -0.65200
Ni657      Ni  0.58294016  0.02485498  0.53414904     1.34900
C658        C  0.44868142  0.92760970  0.56508424     0.85900
O659        O  0.65294702  0.00216165  0.56611004    -0.78200
O660        O  0.66065164  0.01487767  0.54154972    -0.88500
C661        C  0.56416790  0.99446422  0.60088953     0.85400
O662        O  0.57977174  0.07094961  0.54407677    -0.66700
O663        O  0.37036936  0.99526187  0.58057116    -0.86000
C664        C  0.57337208  0.08073704  0.55767791     0.86300
C665        C  0.68348012  0.00671098  0.55416994     1.07800
H666        H  0.47543394  0.03608139  0.57458630     0.39600
O667        O  0.48464643  0.01075210  0.57266791    -1.08600
O668        O  0.45656054  0.94905048  0.55416058    -0.65300
Ni669      Ni  0.46254281  0.00113097  0.55226748     1.26300
O670        O  0.57158594  0.05841281  0.56843670    -0.65500
O671        O  0.37823026  0.00527513  0.55577806    -0.77800
C672        C  0.47249642  0.01239234  0.52152803     0.85700
O673        O  0.44708674  0.99317376  0.53132191    -0.65000
Ni674      Ni  0.44737129  0.98503146  0.58848852     1.27400
Ni675      Ni  0.56861937  0.00616592  0.56982753     1.26100
H676        H  0.55593372  0.97160722  0.54734700     0.40200
O677        O  0.09127723  0.02574189  0.72412482    -0.79800
O678        O  0.05759066  0.01746655  0.65377475    -0.64400
O679        O  0.07929098  0.99664634  0.69501007    -1.11000
C680        C  0.28120933  0.00858195  0.68607075     1.07100
O681        O  0.14326558  0.00027726  0.64415216    -0.77700
O682        O  0.17771478  0.95126346  0.66517998    -0.65200
Ni683      Ni  0.03243591  0.02489281  0.70875208     1.34900
C684        C  0.17929042  0.93651557  0.67802882     0.85900
O685        O  0.98756638  0.99529169  0.67490542    -0.78200
O686        O  0.96458294  0.02615087  0.69573516    -0.88500
C687        C  0.08999962  0.00965101  0.64277451     0.85400
O688        O  0.06159001  0.06997533  0.70152657    -0.66700
O689        O  0.26801157  0.99669958  0.67304244    -0.86000
C690        C  0.05936419  0.08115349  0.68809757     0.86300
C691        C  0.95007148  0.00870724  0.68387024     1.07800
H692        H  0.15554783  0.04664552  0.67435105     0.39600
O693        O  0.15048347  0.02051900  0.67487911    -1.08600
O694        O  0.17854608  0.95480023  0.69041125    -0.65300
Ni695      Ni  0.16146951  0.00608755  0.69543125     1.26300
O696        O  0.05029811  0.05955976  0.67706350    -0.65500
O697        O  0.24301709  0.01746938  0.69573915    -0.77800
C698        C  0.13669948  0.00681678  0.72669128     0.85700
O699        O  0.16758599  0.99295836  0.71619795    -0.65000
Ni700      Ni  0.20088863  0.99909844  0.65997737     1.27400
Ni701      Ni  0.06834625  0.00805080  0.67441044     1.26100
H702        H  0.07175489  0.97103647  0.69653121     0.40200
O703        O  0.59423054  0.02300408  0.72417505    -0.79800
O704        O  0.56050762  0.01900880  0.65380523    -0.64400
O705        O  0.57833769  0.99387476  0.69499401    -1.11000
C706        C  0.78206831  0.00838796  0.68582375     1.07100
O707        O  0.63902325  0.98989724  0.64524793    -0.77700
O708        O  0.69309889  0.94811905  0.66562460    -0.65200
Ni709      Ni  0.53267863  0.02072397  0.70947270     1.34900
C710        C  0.68631909  0.93252486  0.67814457     0.85900
O711        O  0.48673000  0.99721637  0.67449738    -0.78200
O712        O  0.46334150  0.02033946  0.69702451    -0.88500
C713        C  0.58882208  0.00401874  0.64324708     0.85400
O714        O  0.55633570  0.06764047  0.70275431    -0.66700
O715        O  0.76933368  0.00343655  0.67202773    -0.86000
C716        C  0.55795948  0.07975279  0.68947084     0.86300
C717        C  0.44927424  0.00715563  0.68422057     1.07800
H718        H  0.65760285  0.04298398  0.67537564     0.39600
O719        O  0.65115969  0.01695917  0.67535141    -1.08600
O720        O  0.67500398  0.94963860  0.69041531    -0.65300
Ni721      Ni  0.66126902  0.00084005  0.69572884     1.26300
O722        O  0.55405466  0.05902679  0.67796275    -0.65500
O723        O  0.74406849  0.00951362  0.69623830    -0.77800
C724        C  0.63675503  0.00174562  0.72688038     0.85700
O725        O  0.66571454  0.98633145  0.71638944    -0.65000
Ni726      Ni  0.70058249  0.99747079  0.65984337     1.27400
Ni727      Ni  0.56852431  0.00744259  0.67448883     1.26100
H728        H  0.56932391  0.96827667  0.69595955     0.40200
O729        O  0.32499970  0.73372272  0.52533053    -0.79800
O730        O  0.29346630  0.74127934  0.59564162    -0.64400
O731        O  0.30582082  0.76321566  0.55406166    -1.11000
C732        C  0.51064171  0.74836892  0.56383140     1.07100
O733        O  0.36904133  0.77624127  0.60175565    -0.77700
O734        O  0.43880196  0.80803966  0.58228600    -0.65200
Ni735      Ni  0.26303451  0.73412200  0.53988773     1.34900
C736        C  0.42039134  0.82554808  0.57104247     0.85900
O737        O  0.21561714  0.75916955  0.57455199    -0.78200
O738        O  0.19384774  0.73307456  0.55234204    -0.88500
C739        C  0.32248212  0.75961203  0.60522439     0.85400
O740        O  0.29201044  0.68879355  0.54724284    -0.66700
O741        O  0.49794558  0.74514416  0.57767013    -0.86000
C742        C  0.29361559  0.67750113  0.56066541     0.86300
C743        C  0.17884271  0.74770300  0.56481661     1.07800
H744        H  0.38767823  0.71646808  0.57312346     0.39600
O745        O  0.38061919  0.74241886  0.57356029    -1.08600
O746        O  0.39671756  0.81055262  0.55947180    -0.65300
Ni747      Ni  0.38930933  0.75943127  0.55355415     1.26300
O748        O  0.28588474  0.69866276  0.57189777    -0.65500
O749        O  0.47317472  0.75493709  0.55352329    -0.77800
C750        C  0.36570109  0.75630214  0.52258534     0.85700
O751        O  0.39216770  0.77396070  0.53297861    -0.65000
Ni752      Ni  0.43118963  0.75963951  0.58903432     1.27400
Ni753      Ni  0.29799284  0.75069991  0.57466824     1.26100
H754        H  0.29419744  0.78835043  0.55281567     0.40200
O755        O  0.81982461  0.71240872  0.52846960    -0.79800
O756        O  0.80164750  0.72932573  0.59579764    -0.64400
O757        O  0.80543846  0.75381276  0.55426734    -1.11000
C758        C  0.01067486  0.74960224  0.56174712     1.07100
O759        O  0.86572992  0.77309470  0.60152173    -0.77700
O760        O  0.91678223  0.81305392  0.57864455    -0.65200
Ni761      Ni  0.75564074  0.73022263  0.54008572     1.34900
C762        C  0.91012253  0.82340782  0.56509952     0.85900
O763        O  0.71671609  0.74072868  0.57530675    -0.78200
O764        O  0.68882510  0.74570432  0.55108351    -0.88500
C765        C  0.82562313  0.75076362  0.60535862     0.85400
O766        O  0.75096601  0.68354235  0.54885653    -0.66700
O767        O  0.99821226  0.75939971  0.57518182    -0.86000
C768        C  0.77726163  0.66913138  0.55981140     0.86300
C769        C  0.67767921  0.74455913  0.56508766     1.07800
H770        H  0.89765171  0.71368404  0.57442513     0.39600
O771        O  0.88465925  0.73857831  0.57325467    -1.08600
O772        O  0.89849670  0.80142713  0.55427405    -0.65300
Ni773      Ni  0.88848951  0.74892402  0.55223327     1.26300
O774        O  0.80130363  0.68760349  0.57039254    -0.65500
O775        O  0.97228430  0.74340099  0.55150620    -0.77800
C776        C  0.85552299  0.73389316  0.52242019     0.85700
O777        O  0.88590735  0.75567824  0.53060468    -0.65000
Ni778      Ni  0.92958097  0.76603966  0.58733130     1.27400
Ni779      Ni  0.80124553  0.73976780  0.57472077     1.26100
H780        H  0.79565232  0.77942453  0.55390850     0.40200
O781        O  0.31781955  0.74020980  0.72778403    -0.79800
O782        O  0.34769796  0.75371062  0.65729622    -0.64400
O783        O  0.33220633  0.77094553  0.69922416    -1.11000
C784        C  0.12789519  0.75776802  0.68868154     1.07100
O785        O  0.27236725  0.78871393  0.65085502    -0.77700
O786        O  0.20967561  0.82344488  0.67250492    -0.65200
Ni787      Ni  0.37623505  0.73984633  0.71233478     1.34900
C788        C  0.22014592  0.83615856  0.68558593     0.85900
O789        O  0.42347025  0.77051238  0.67904211    -0.78200
O790        O  0.44345804  0.73731266  0.69929283    -0.88500
C791        C  0.31804246  0.77055374  0.64755840     0.85400
O792        O  0.34241340  0.69669739  0.70393448    -0.66700
O793        O  0.13975005  0.76396724  0.67498178    -0.86000
C794        C  0.34328202  0.68681541  0.69021808     0.86300
C795        C  0.45958726  0.75557012  0.68796496     1.07800
H796        H  0.25145561  0.72703264  0.67732462     0.39600
O797        O  0.25863095  0.75284870  0.67847456    -1.08600
O798        O  0.23750863  0.81640237  0.69644980    -0.65300
Ni799      Ni  0.24902593  0.76440109  0.69922692     1.26300
O800        O  0.35402161  0.70907387  0.67970358    -0.65500
O801        O  0.16625358  0.75660496  0.69905839    -0.77800
C802        C  0.27181945  0.75876433  0.73029310     0.85700
O803        O  0.24310320  0.77450844  0.72004198    -0.65000
Ni804      Ni  0.20900503  0.77563798  0.66391222     1.27400
Ni805      Ni  0.34135689  0.76144189  0.67828514     1.26100
H806        H  0.34213280  0.79606474  0.70140736     0.40200
O807        O  0.82774396  0.75162237  0.73128865    -0.79800
O808        O  0.84259269  0.74031010  0.65933190    -0.64400
O809        O  0.83020739  0.77183415  0.70059798    -1.11000
C810        C  0.62725386  0.75468532  0.69148636     1.07100
O811        O  0.77071652  0.77633108  0.65157630    -0.77700
O812        O  0.71931109  0.81876457  0.67352976    -0.65200
Ni813      Ni  0.88330559  0.75132956  0.71525097     1.34900
C814        C  0.72003328  0.83154032  0.68689507     0.85900
O815        O  0.92018947  0.76434652  0.67898454    -0.78200
O816        O  0.94908556  0.74894820  0.70193687    -0.88500
C817        C  0.81543904  0.75658037  0.64885218     0.85400
O818        O  0.86097607  0.70300308  0.71053230    -0.66700
O819        O  0.64019231  0.76472373  0.67825721    -0.86000
C820        C  0.85178499  0.68724756  0.69800808     0.86300
C821        C  0.95992513  0.75746366  0.68846832     1.07800
H822        H  0.74845913  0.72142793  0.68018922     0.39600
O823        O  0.75627948  0.74724619  0.68106096    -1.08600
O824        O  0.72833085  0.81170068  0.69841306    -0.65300
Ni825      Ni  0.74743396  0.76069736  0.70176536     1.26300
O826        O  0.84972776  0.70403946  0.68543935    -0.65500
O827        O  0.66530099  0.74908121  0.70177175    -0.77800
C828        C  0.77551939  0.76189051  0.73355647     0.85700
O829        O  0.74120778  0.77146047  0.72296278    -0.65000
Ni830      Ni  0.70860785  0.77014687  0.66614704     1.27400
Ni831      Ni  0.83827297  0.75519183  0.68005135     1.26100
H832        H  0.83562120  0.79795331  0.70082729     0.40200
O833        O  0.49725269  0.51590790  0.89880187    -0.79800
O834        O  0.52711201  0.49675060  0.96959528    -0.64400
O835        O  0.51079855  0.48133588  0.92718328    -1.11000
C836        C  0.30917896  0.48601390  0.93533738     1.07100
O837        O  0.44499948  0.46879254  0.97664677    -0.77700
O838        O  0.42090331  0.42576964  0.95275884    -0.65200
Ni839      Ni  0.55901276  0.50726008  0.91327019     1.34900
C840        C  0.42152233  0.41594381  0.93904415     0.85900
O841        O  0.60329720  0.47963352  0.94795701    -0.78200
O842        O  0.62786656  0.50014384  0.92521135    -0.88500
C843        C  0.49430469  0.48306307  0.97958151     0.85400
O844        O  0.54772242  0.55427941  0.92220299    -0.66700
O845        O  0.32329464  0.46827607  0.94698587    -0.86000
C846        C  0.54622638  0.56418516  0.93595975     0.86300
C847        C  0.64117598  0.48791863  0.93809456     1.07800
H848        H  0.43016533  0.52495166  0.95022320     0.39600
O849        O  0.43781656  0.49954132  0.94801088    -1.08600
O850        O  0.41455942  0.43851353  0.92838398    -0.65300
Ni851      Ni  0.42846181  0.49079541  0.92695646     1.26300
O852        O  0.53748306  0.54193054  0.94668036    -0.65500
O853        O  0.34683456  0.50133992  0.92715756    -0.77800
C854        C  0.44953551  0.49923493  0.89604410     0.85700
O855        O  0.42109513  0.48289687  0.90603698    -0.65000
Ni856      Ni  0.38916375  0.46989285  0.96063583     1.27400
Ni857      Ni  0.52083132  0.48998721  0.94828592     1.26100
H858        H  0.51776237  0.45571482  0.92529642     0.40200
O859        O  0.99887399  0.50378910  0.89574985    -0.79800
O860        O  0.02823487  0.51110916  0.96677169    -0.64400
O861        O  0.00853051  0.47846990  0.92580527    -1.11000
C862        C  0.80903225  0.49223514  0.93567352     1.07100
O863        O  0.95648201  0.47522081  0.97464905    -0.77700
O864        O  0.91930007  0.43081572  0.95258550    -0.65200
Ni865      Ni  0.06001170  0.49329554  0.91004354     1.34900
C866        C  0.91562155  0.41916903  0.93915254     0.85900
O867        O  0.10378664  0.48563770  0.94627061    -0.78200
O868        O  0.12853566  0.48415217  0.92193025    -0.88500
C869        C  0.99977869  0.49600555  0.97732143     0.85400
O870        O  0.06112307  0.54312915  0.91568075    -0.66700
O871        O  0.82450463  0.47689783  0.94783532    -0.86000
C872        C  0.05241601  0.56063251  0.92782858     0.86300
C873        C  0.14133973  0.48269908  0.93582767     1.07800
H874        H  0.93099479  0.52981728  0.94734235     0.39600
O875        O  0.93896709  0.50412667  0.94589179    -1.08600
O876        O  0.90752385  0.44038506  0.92814045    -0.65300
Ni877      Ni  0.92659426  0.49137598  0.92534219     1.26300
O878        O  0.03668026  0.54580152  0.94016425    -0.65500
O879        O  0.84561355  0.50415083  0.92617064    -0.77800
C880        C  0.94636861  0.49318683  0.89391366     0.85700
O881        O  0.91573950  0.48099112  0.90453330    -0.65000
Ni882      Ni  0.89429643  0.47703498  0.96013181     1.27400
Ni883      Ni  0.02142508  0.49555501  0.94608779     1.26100
H884        H  0.01212040  0.45225092  0.92603301     0.40200
O885        O  0.38317666  0.51341755  0.85162577    -0.79800
O886        O  0.35533114  0.53210065  0.78226264    -0.64400
O887        O  0.36610038  0.49110331  0.82152052    -1.11000
C888        C  0.57018511  0.49951706  0.81191926     1.07100
O889        O  0.41631882  0.48938835  0.77463044    -0.77700
O890        O  0.47475419  0.44450805  0.79212287    -0.65200
Ni891      Ni  0.31868152  0.50726953  0.83779412     1.34900
C892        C  0.46297842  0.42819656  0.80419386     0.85900
O893        O  0.27504971  0.50769320  0.80145920    -0.78200
O894        O  0.24916305  0.50231806  0.82570692    -0.88500
C895        C  0.38105868  0.51502201  0.77171306     0.85400
O896        O  0.32237519  0.55778741  0.83370902    -0.66700
O897        O  0.55598624  0.49753003  0.79808087    -0.86000
C898        C  0.33351308  0.57644505  0.82218020     0.86300
C899        C  0.23707139  0.50372678  0.81170924     1.07800
H900        H  0.45250764  0.54116356  0.80383983     0.39600
O901        O  0.44131584  0.51579224  0.80321049    -1.08600
O902        O  0.45485707  0.44471958  0.81663238    -0.65300
Ni903      Ni  0.44966903  0.49546303  0.82266366     1.26300
O904        O  0.34912316  0.56257609  0.80957165    -0.65500
O905        O  0.53337748  0.49992072  0.82268030    -0.77800
C906        C  0.42967757  0.49483767  0.85350983     0.85700
O907        O  0.45481645  0.47842135  0.84273511    -0.65000
Ni908      Ni  0.48429087  0.49430785  0.78702449     1.27400
Ni909      Ni  0.35797813  0.51269173  0.80216612     1.26100
H910        H  0.35622140  0.46566982  0.82020168     0.40200
O911        O  0.88476131  0.51838238  0.84861253    -0.79800
O912        O  0.85697674  0.52041318  0.77866712    -0.64400
O913        O  0.86521426  0.48896910  0.81934864    -1.11000
C914        C  0.07007349  0.49816479  0.81174027     1.07100
O915        O  0.92711014  0.48233095  0.77157774    -0.77700
O916        O  0.98186059  0.44024914  0.79122711    -0.65200
Ni917      Ni  0.81964017  0.51116794  0.83485645     1.34900
C918        C  0.96650703  0.42481422  0.80324345     0.85900
O919        O  0.77514679  0.49972593  0.79860741    -0.78200
O920        O  0.75035014  0.50450534  0.82305787    -0.88500
C921        C  0.88617139  0.50440941  0.76844405     0.85400
O922        O  0.82462030  0.56059875  0.82823849    -0.66700
O923        O  0.05921163  0.49542937  0.79772415    -0.86000
C924        C  0.83398881  0.57480815  0.81547714     0.86300
C925        C  0.73743594  0.50063532  0.80918184     1.07800
H926        H  0.95150969  0.53645989  0.80106050     0.39600
O927        O  0.94197497  0.51080720  0.80072160    -1.08600
O928        O  0.95412565  0.44209770  0.81528847    -0.65300
Ni929      Ni  0.94800481  0.49311948  0.82073861     1.26300
O930        O  0.84912905  0.55648190  0.80395389    -0.65500
O931        O  0.03095238  0.49796431  0.82182242    -0.77800
C932        C  0.92685530  0.49647890  0.85127614     0.85700
O933        O  0.95013876  0.47764577  0.84094082    -0.65000
Ni934      Ni  0.99052564  0.48964938  0.78549058     1.27400
Ni935      Ni  0.85875999  0.50552466  0.79918514     1.26100
H936        H  0.85462239  0.46347363  0.81928011     0.40200
O937        O  0.12294052  0.72031745  0.90066521    -0.79800
O938        O  0.08419860  0.72525186  0.97214563    -0.64400
O939        O  0.09669070  0.74888526  0.93002587    -1.11000
C940        C  0.30340039  0.74097468  0.93942238     1.07100
O941        O  0.15994516  0.75994115  0.97878806    -0.77700
O942        O  0.22001643  0.79833936  0.95895477    -0.65200
Ni943      Ni  0.05773905  0.72107595  0.91473652     1.34900
C944        C  0.20003687  0.81433813  0.94745481     0.85900
O945        O  0.00207208  0.74150379  0.94984638    -0.78200
O946        O  0.98695946  0.72043841  0.92623010    -0.88500
C947        C  0.11682721  0.74005026  0.98227369     0.85400
O948        O  0.07970324  0.67459783  0.92247171    -0.66700
O949        O  0.29184240  0.73968181  0.95339909    -0.86000
C950        C  0.07670112  0.66292313  0.93588644     0.86300
C951        C  0.96815584  0.73121134  0.93896864     1.07800
H952        H  0.17995625  0.70373198  0.94948019     0.39600
O953        O  0.17165106  0.72955737  0.94983514    -1.08600
O954        O  0.18217994  0.79765045  0.93565747    -0.65300
Ni955      Ni  0.18021204  0.74683361  0.92972461     1.26300
O956        O  0.07672854  0.68394812  0.94735991    -0.65500
O957        O  0.26418195  0.74441248  0.92937708    -0.77800
C958        C  0.16441002  0.74299124  0.89860859     0.85700
O959        O  0.18472558  0.76216831  0.90935284    -0.65000
Ni960      Ni  0.22264841  0.74892406  0.96516252     1.27400
Ni961      Ni  0.08738859  0.73576588  0.95072688     1.26100
H962        H  0.08399110  0.77386800  0.92894715     0.40200
O963        O  0.62750500  0.73218253  0.90217699    -0.79800
O964        O  0.58475850  0.71277405  0.97095800    -0.64400
O965        O  0.60844626  0.75168066  0.93210733    -1.11000
C966        C  0.80560204  0.75233417  0.94872153     1.07100
O967        O  0.62846989  0.76311688  0.97807844    -0.77700
O968        O  0.67738155  0.80903518  0.95896820    -0.65200
Ni969      Ni  0.56146294  0.73632722  0.91536483     1.34900
C970        C  0.68700618  0.81864385  0.94556676     0.85900
O971        O  0.50961800  0.73318727  0.95030068    -0.78200
O972        O  0.48799301  0.74049999  0.92610092    -0.88500
C973        C  0.60564608  0.73269465  0.98128424     0.85400
O974        O  0.56640793  0.68561311  0.91959303    -0.66700
O975        O  0.78055989  0.76760751  0.95997014    -0.86000
C976        C  0.57791653  0.66707212  0.93123686     0.86300
C977        C  0.47297873  0.73742330  0.93978492     1.07800
H978        H  0.69039376  0.70775979  0.95551084     0.39600
O979        O  0.67594279  0.73202660  0.95342095    -1.08600
O980        O  0.70341482  0.79613425  0.93563598    -0.65300
Ni981      Ni  0.69344834  0.74429291  0.93361719     1.26300
O982        O  0.59192721  0.68128374  0.94397615    -0.65500
O983        O  0.77691413  0.73849426  0.93750897    -0.77800
C984        C  0.67993365  0.74394334  0.90180488     0.85700
O985        O  0.70921958  0.75344088  0.91325472    -0.65000
Ni986      Ni  0.70294683  0.76510234  0.96852599     1.27400
Ni987      Ni  0.59279246  0.73151273  0.95140271     1.26100
H988        H  0.60043117  0.77746616  0.93305089     0.40200
O989        O  0.24113717  0.72766737  0.85366999    -0.79800
O990        O  0.29005236  0.74457914  0.78390904    -0.64400
O991        O  0.26241196  0.76105455  0.82568999    -1.11000
C992        C  0.06360601  0.76578435  0.81254862     1.07100
O993        O  0.20774317  0.76794184  0.77443325    -0.77700
O994        O  0.19463173  0.81579423  0.79766711    -0.65200
Ni995      Ni  0.30760097  0.73515156  0.84036381     1.34900
C996        C  0.19029541  0.82763589  0.81109341     0.85900
O997        O  0.35997094  0.76128498  0.80655284    -0.78200
O998        O  0.38118697  0.74143694  0.82962870    -0.88500
C999        C  0.25848193  0.75439448  0.77292654     0.85400
O1000       O  0.29712035  0.68814858  0.83130565    -0.66700
O1001       O  0.08742817  0.78634561  0.80306966    -0.86000
C1002       C  0.29704875  0.67819742  0.81754301     0.86300
C1003       C  0.39670573  0.75329709  0.81679459     1.07800
H1004       H  0.18502388  0.71915910  0.80119479     0.39600
O1005       O  0.19379040  0.74439493  0.80352719    -1.08600
O1006       O  0.17281486  0.80737347  0.82185535    -0.65300
Ni1007     Ni  0.17874801  0.75425967  0.82421710     1.26300
O1008       O  0.29062392  0.70035130  0.80672590    -0.65500
O1009       O  0.09479717  0.74720451  0.82162920    -0.77800
C1010       C  0.19236700  0.74419406  0.85569723     0.85700
O1011       O  0.16644892  0.76152921  0.84528393    -0.65000
Ni1012     Ni  0.15201707  0.77553620  0.78996656     1.27400
Ni1013     Ni  0.27741273  0.75226969  0.80486168     1.26100
H1014       H  0.27072905  0.78646063  0.82765703     0.40200
O1015       O  0.75481418  0.73497837  0.85878612    -0.79800
O1016       O  0.79419991  0.73610937  0.78732283    -0.64400
O1017       O  0.77154485  0.75829182  0.82920058    -1.11000
C1018       C  0.56784674  0.75193934  0.81854674     1.07100
O1019       O  0.71295108  0.76336157  0.77874473    -0.77700
O1020       O  0.67913954  0.81010489  0.80038029    -0.65200
Ni1021     Ni  0.81384084  0.73026979  0.84373334     1.34900
C1022       C  0.68265990  0.82272933  0.81368716     0.85900
O1023       O  0.86879364  0.75428002  0.81032173    -0.78200
O1024       O  0.88138208  0.72255599  0.83129268    -0.88500
C1025       C  0.76315038  0.74924615  0.77666290     0.85400
O1026       O  0.77872297  0.68672501  0.83660755    -0.66700
O1027       O  0.58260488  0.76554710  0.80602272    -0.86000
C1028       C  0.78723273  0.67334587  0.82362825     0.86300
C1029       C  0.90198285  0.73922723  0.82010927     1.07800
H1030       H  0.69271285  0.71201985  0.80674528     0.39600
O1031       O  0.70070587  0.73773666  0.80801786    -1.08600
O1032       O  0.67767898  0.80266907  0.82522360    -0.65300
Ni1033     Ni  0.68812252  0.75067878  0.82858783     1.26300
O1034       O  0.79681404  0.69321250  0.81209109    -0.65500
O1035       O  0.60565218  0.74118042  0.82796399    -0.77800
C1036       C  0.70527476  0.75031246  0.86002607     0.85700
O1037       O  0.67711425  0.76272984  0.84901510    -0.65000
Ni1038     Ni  0.65280882  0.76350759  0.79368518     1.27400
Ni1039     Ni  0.78476524  0.74568598  0.80856642     1.26100
H1040       H  0.78058860  0.78375492  0.83079303     0.40200
O1041       O  0.36580804  0.23015942  0.89488848    -0.79800
O1042       O  0.33791024  0.21216887  0.96407921    -0.64400
O1043       O  0.34538416  0.25223303  0.92474903    -1.11000
C1044       C  0.55096657  0.23990111  0.93312242     1.07100
O1045       O  0.40459742  0.25173028  0.97170747    -0.77700
O1046       O  0.46791416  0.29458406  0.95445574    -0.65200
Ni1047     Ni  0.30014776  0.23334116  0.90846869     1.34900
C1048       C  0.44988594  0.31307937  0.94342970     0.85900
O1049       O  0.25613636  0.23693373  0.94492023    -0.78200
O1050       O  0.23002083  0.23549244  0.92045364    -0.88500
C1051       C  0.36543537  0.22844652  0.97458320     0.85400
O1052       O  0.31011919  0.18304809  0.91260184    -0.66700
O1053       O  0.53870493  0.23719654  0.94700738    -0.86000
C1054       C  0.31740807  0.16561879  0.92466450     0.86300
C1055       C  0.21783710  0.23732466  0.93445143     1.07800
H1056       H  0.43201402  0.20090416  0.94103923     0.39600
O1057       O  0.42230179  0.22635328  0.94246514    -1.08600
O1058       O  0.43297453  0.29877284  0.93108298    -0.65300
Ni1059     Ni  0.42867235  0.24931100  0.92346405     1.26300
O1060       O  0.32819787  0.18092006  0.93730784    -0.65500
O1061       O  0.51284888  0.24547201  0.92284116    -0.77800
C1062       C  0.40677470  0.25313054  0.89302006     0.85700
O1063       O  0.43003105  0.27005403  0.90397234    -0.65000
Ni1064     Ni  0.46974103  0.24382749  0.95868421     1.27400
Ni1065     Ni  0.33914683  0.23094792  0.94410628     1.26100
H1066       H  0.33404231  0.27751352  0.92579977     0.40200
O1067       O  0.86763043  0.23052790  0.89608771    -0.79800
O1068       O  0.83934874  0.21667886  0.96575974    -0.64400
O1069       O  0.84384619  0.25273724  0.92569590    -1.11000
C1070       C  0.05024763  0.24517156  0.93380384     1.07100
O1071       O  0.90553446  0.25763870  0.97260627    -0.77700
O1072       O  0.96901681  0.29901965  0.95482695    -0.65200
Ni1073     Ni  0.80175747  0.23083204  0.90957959     1.34900
C1074       C  0.94625347  0.31693568  0.94421563     0.85900
O1075       O  0.75573795  0.23701129  0.94593746    -0.78200
O1076       O  0.73158532  0.23014571  0.92145129    -0.88500
C1077       C  0.86589538  0.23501534  0.97591972     0.85400
O1078       O  0.81884891  0.18158762  0.91428094    -0.66700
O1079       O  0.03895114  0.24085107  0.94768676    -0.86000
C1080       C  0.82434112  0.16512951  0.92663864     0.86300
C1081       C  0.71825517  0.23416203  0.93529877     1.07800
H1082       H  0.93342147  0.20468090  0.94217575     0.39600
O1083       O  0.92250721  0.22994013  0.94359465    -1.08600
O1084       O  0.92646506  0.30209510  0.93226864    -0.65300
Ni1085     Ni  0.92702407  0.25277739  0.92453614     1.26300
O1086       O  0.83081972  0.18167809  0.93925567    -0.65500
O1087       O  0.01133139  0.25186522  0.92386024    -0.77800
C1088       C  0.90569113  0.25531131  0.89413641     0.85700
O1089       O  0.92659368  0.27354794  0.90504105    -0.65000
Ni1090     Ni  0.97035939  0.24848669  0.95953309     1.27400
Ni1091     Ni  0.83914161  0.23281841  0.94531576     1.26100
H1092       H  0.83000785  0.27760940  0.92634683     0.40200
O1093       O  0.50015121  0.21455272  0.84832865    -0.79800
O1094       O  0.52996844  0.23934137  0.78076187    -0.64400
O1095       O  0.52040122  0.25727642  0.82284206    -1.11000
C1096       C  0.31649999  0.25656637  0.81535996     1.07100
O1097       O  0.45567878  0.27596393  0.77462325    -0.77700
O1098       O  0.42228683  0.31673244  0.79800656    -0.65200
Ni1099     Ni  0.56659991  0.23140841  0.83698473     1.34900
C1100       C  0.43078426  0.32691351  0.81150125     0.85900
O1101       O  0.61155337  0.25252895  0.80232512    -0.78200
O1102       O  0.63586664  0.24660378  0.82684052    -0.88500
C1103       C  0.50040018  0.25713987  0.77115267     0.85400
O1104       O  0.57070011  0.18545279  0.82694610    -0.66700
O1105       O  0.32872044  0.26983485  0.80259290    -0.86000
C1106       C  0.55714808  0.17390497  0.81390394     0.86300
C1107       C  0.64892917  0.25234241  0.81312841     1.07800
H1108       H  0.43260397  0.21718459  0.80102912     0.39600
O1109       O  0.44337344  0.24233380  0.80280041    -1.08600
O1110       O  0.43024395  0.30492178  0.82249125    -0.65300
Ni1111     Ni  0.43793350  0.25222548  0.82393485     1.26300
O1112       O  0.53598476  0.19451684  0.80377837    -0.65500
O1113       O  0.35520237  0.24603646  0.82461231    -0.77800
C1114       C  0.46026495  0.23547604  0.85334191     0.85700
O1115       O  0.43731585  0.25953673  0.84510210    -0.65000
Ni1116     Ni  0.39632209  0.27169726  0.78970858     1.27400
Ni1117     Ni  0.52732745  0.24705441  0.80201546     1.26100
H1118       H  0.53038272  0.28266308  0.82428157     0.40200
O1119       O  0.00001988  0.21644080  0.84997265    -0.79800
O1120       O  0.03245931  0.23767606  0.78229942    -0.64400
O1121       O  0.01939448  0.25730225  0.82398575    -1.11000
C1122       C  0.81658030  0.25597752  0.81604287     1.07100
O1123       O  0.95308602  0.26806673  0.77485505    -0.77700
O1124       O  0.92815538  0.31303782  0.79782483    -0.65200
Ni1125     Ni  0.06627531  0.23155448  0.83813885     1.34900
C1126       C  0.93258020  0.32441319  0.81129546     0.85900
O1127       O  0.11040576  0.25448927  0.80349064    -0.78200
O1128       O  0.13621223  0.24504163  0.82762495    -0.88500
C1129       C  0.00088514  0.25166712  0.77218289     0.85400
O1130       O  0.06718813  0.18485817  0.82857641    -0.66700
O1131       O  0.83040231  0.27125734  0.80383008    -0.86000
C1132       C  0.05627566  0.17378845  0.81530411     0.86300
C1133       C  0.14842412  0.25277878  0.81402666     1.07800
H1134       H  0.93400619  0.21447577  0.80219409     0.39600
O1135       O  0.94358188  0.23986031  0.80382589    -1.08600
O1136       O  0.92726173  0.30347038  0.82255882    -0.65300
Ni1137     Ni  0.93696290  0.25101801  0.82480130     1.26300
O1138       O  0.03863696  0.19482458  0.80498659    -0.65500
O1139       O  0.85431373  0.24348468  0.82514513    -0.77800
C1140       C  0.95905149  0.23720817  0.85451422     0.85700
O1141       O  0.93508099  0.25999127  0.84585376    -0.65000
Ni1142     Ni  0.89637316  0.26852585  0.79053073     1.27400
Ni1143     Ni  0.02724682  0.24676716  0.80322587     1.26100
H1144       H  0.02857832  0.28279993  0.82544793     0.40200
O1145       O  0.24107891  0.00808888  0.89774527    -0.79800
O1146       O  0.26615650  0.00710508  0.96843066    -0.64400
O1147       O  0.25359557  0.97962627  0.92711078    -1.11000
C1148       C  0.05135537  0.98400148  0.93542832     1.07100
O1149       O  0.19147435  0.97343568  0.97628177    -0.77700
O1150       O  0.16512901  0.92708245  0.95377131    -0.65200
Ni1151     Ni  0.30254513  0.00216000  0.91235354     1.34900
C1152       C  0.16616370  0.91511858  0.94035145     0.85900
O1153       O  0.34456637  0.98705351  0.94830877    -0.78200
O1154       O  0.37117930  0.99778788  0.92458744    -0.88500
C1155       C  0.23723751  0.99213771  0.97878898     0.85400
O1156       O  0.29188803  0.05109489  0.91925162    -0.66700
O1157       O  0.06626047  0.96855834  0.94758632    -0.86000
C1158       C  0.28470395  0.06457495  0.93234761     0.86300
C1159       C  0.38318277  0.99174426  0.93828623     1.07800
H1160       H  0.16840938  0.02584661  0.94831955     0.39600
O1161       O  0.17848542  0.00044207  0.94696133    -1.08600
O1162       O  0.15856228  0.93568609  0.92910045    -0.65300
Ni1163     Ni  0.17060896  0.98750010  0.92624128     1.26300
O1164       O  0.27292858  0.04541185  0.94380977    -0.65500
O1165       O  0.08832552  0.99637776  0.92617443    -0.77800
C1166       C  0.19444755  0.99019676  0.89519650     0.85700
O1167       O  0.16499235  0.97570056  0.90551252    -0.65000
Ni1168     Ni  0.13326679  0.97206180  0.96074276     1.27400
Ni1169     Ni  0.26167474  0.99407336  0.94773315     1.26100
H1170       H  0.26169403  0.95380039  0.92648516     0.40200
O1171       O  0.73421338  0.00754486  0.89987476    -0.79800
O1172       O  0.76903805  0.00507250  0.97001083    -0.64400
O1173       O  0.75478898  0.97877811  0.92865498    -1.11000
C1174       C  0.55042620  0.99626284  0.93781520     1.07100
O1175       O  0.69137294  0.97278483  0.97658195    -0.77700
O1176       O  0.62277322  0.93830105  0.95724525    -0.65200
Ni1177     Ni  0.79993670  0.00149947  0.91351051     1.34900
C1178       C  0.64456142  0.91981588  0.94656305     0.85900
O1179       O  0.84645561  0.98234404  0.94910161    -0.78200
O1180       O  0.87019010  0.99540968  0.92518934    -0.88500
C1181       C  0.73834300  0.98936012  0.97989417     0.85400
O1182       O  0.79211897  0.05070132  0.92074280    -0.66700
O1183       O  0.56283878  0.00062531  0.95165918    -0.86000
C1184       C  0.79069196  0.06366429  0.93407515     0.86300
C1185       C  0.88378123  0.98640386  0.93858386     1.07800
H1186       H  0.67653162  0.02944615  0.94721532     0.39600
O1187       O  0.68177896  0.00336608  0.94785491    -1.08600
O1188       O  0.66603780  0.93398037  0.93472237    -0.65300
Ni1189     Ni  0.67193506  0.98416385  0.92801969     1.26300
O1190       O  0.78174361  0.04402054  0.94554894    -0.65500
O1191       O  0.58826222  0.98925158  0.92772418    -0.77800
C1192       C  0.69153897  0.98591436  0.89716817     0.85700
O1193       O  0.66730899  0.96784352  0.90757715    -0.65000
Ni1194     Ni  0.62986750  0.98775941  0.96331997     1.27400
Ni1195     Ni  0.76416628  0.99318597  0.94908198     1.26100
H1196       H  0.76433448  0.95313868  0.92799510     0.40200
O1197       O  0.13411505  0.00686836  0.85105345    -0.79800
O1198       O  0.10699069  0.02379715  0.78036174    -0.64400
O1199       O  0.12053219  0.98694129  0.82045764    -1.11000
C1200       C  0.32389114  0.00389275  0.81113782     1.07100
O1201       O  0.17510282  0.98498944  0.77288189    -0.77700
O1202       O  0.23710228  0.94382977  0.79137585    -0.65200
Ni1203     Ni  0.07245597  0.00480389  0.83644279     1.34900
C1204       C  0.22562398  0.92774774  0.80352843     0.85900
O1205       O  0.02814209  0.99843124  0.79993911    -0.78200
O1206       O  0.00356314  0.00388397  0.82420807    -0.88500
C1207       C  0.13519885  0.00781148  0.76988996     0.85400
O1208       O  0.08574272  0.05459405  0.83233162    -0.66700
O1209       O  0.31088729  0.00092702  0.79725663    -0.86000
C1210       C  0.09093788  0.07201287  0.82019577     0.86300
C1211       C  0.99041892  0.00002118  0.81040622     1.07800
H1212       H  0.20173384  0.03926697  0.80224944     0.39600
O1213       O  0.19362725  0.01342957  0.80179391    -1.08600
O1214       O  0.21418671  0.94443438  0.81573117    -0.65300
Ni1215     Ni  0.20369609  0.99473778  0.82151332     1.26300
O1216       O  0.09779068  0.05675427  0.80732347    -0.65500
O1217       O  0.28648688  0.00285183  0.82170122    -0.77800
C1218       C  0.18262859  0.99045712  0.85260611     0.85700
O1219       O  0.21137206  0.97796355  0.84158216    -0.65000
Ni1220     Ni  0.24065926  0.99371168  0.78587615     1.27400
Ni1221     Ni  0.11086491  0.00651486  0.80065466     1.26100
H1222       H  0.11273060  0.96110369  0.81972607     0.40200
O1223       O  0.62780364  0.00516119  0.85225401    -0.79800
O1224       O  0.61027646  0.02158183  0.78057825    -0.64400
O1225       O  0.61784131  0.98665765  0.82117194    -1.11000
C1226       C  0.82303663  0.99628090  0.81278363     1.07100
O1227       O  0.67724332  0.98190235  0.77322836    -0.77700
O1228       O  0.72947505  0.93865886  0.79276713    -0.65200
Ni1229     Ni  0.56988959  0.00831757  0.83645651     1.34900
C1230       C  0.71670037  0.92336595  0.80501386     0.85900
O1231       O  0.52933160  0.99793669  0.79972572    -0.78200
O1232       O  0.50351868  0.01251900  0.82324645    -0.88500
C1233       C  0.63781075  0.00495649  0.77017741     0.85400
O1234       O  0.59451748  0.05652714  0.83216712    -0.66700
O1235       O  0.81032373  0.99211691  0.79895992    -0.86000
C1236       C  0.59663196  0.07275966  0.81965144     0.86300
C1237       C  0.49105000  0.00487143  0.80963413     1.07800
H1238       H  0.70414646  0.03578582  0.80286185     0.39600
O1239       O  0.69444358  0.01015293  0.80261512    -1.08600
O1240       O  0.70829275  0.94087324  0.81724856    -0.65300
Ni1241     Ni  0.70148886  0.99206618  0.82263753     1.26300
O1242       O  0.59941240  0.05599083  0.80698626    -0.65500
O1243       O  0.78502993  0.99773814  0.82322164    -0.77800
C1244       C  0.67648886  0.98887316  0.85403757     0.85700
O1245       O  0.70630800  0.97664468  0.84308088    -0.65000
Ni1246     Ni  0.74098117  0.98791986  0.78707823     1.27400
Ni1247     Ni  0.61166974  0.00501971  0.80101192     1.26100
H1248       H  0.60781575  0.96108223  0.82082198     0.40200
O1249       O  0.06215096  0.51128690  0.22790563    -0.79800
O1250       O  0.03709049  0.51459199  0.15801719    -0.64400
O1251       O  0.04854877  0.48162568  0.19866581    -1.11000
C1252       C  0.25186048  0.49564458  0.19006331     1.07100
O1253       O  0.10476498  0.47487933  0.15047665    -0.77700
O1254       O  0.16456521  0.43283482  0.17106170    -0.65200
Ni1255     Ni  0.99916974  0.50042931  0.21423843     1.34900
C1256       C  0.15837128  0.41905710  0.18404296     0.85900
O1257       O  0.95676445  0.49521148  0.17812582    -0.78200
O1258       O  0.93084051  0.49171552  0.20240169    -0.88500
C1259       C  0.06151694  0.49588362  0.14763906     0.85400
O1260       O  0.00051485  0.54984532  0.20835196    -0.66700
O1261       O  0.23905494  0.48945823  0.17629197    -0.86000
C1262       C  0.01740447  0.56668992  0.19681240     0.86300
C1263       C  0.91863794  0.49239947  0.18845686     1.07800
H1264       H  0.13333649  0.52999292  0.17964022     0.39600
O1265       O  0.12341066  0.50440186  0.17978354    -1.08600
O1266       O  0.14517501  0.43790115  0.19563724    -0.65300
Ni1267     Ni  0.13139238  0.48890511  0.20012105     1.26300
O1268       O  0.03414379  0.55082752  0.18470931    -0.65500
O1269       O  0.21417770  0.49730081  0.20060193    -0.77800
C1270       C  0.10574699  0.49141480  0.23112427     0.85700
O1271       O  0.13498575  0.47526150  0.22091128    -0.65000
Ni1272     Ni  0.16963345  0.48230325  0.16438977     1.27400
Ni1273     Ni  0.04041513  0.49978707  0.17865650     1.26100
H1274       H  0.04095636  0.45573353  0.19815614     0.40200
O1275       O  0.56633427  0.52404533  0.22631934    -0.79800
O1276       O  0.53508910  0.50387451  0.15691608    -0.64400
O1277       O  0.54615565  0.48711531  0.19888326    -1.11000
C1278       C  0.75138434  0.49303126  0.18984781     1.07100
O1279       O  0.60780682  0.46664880  0.15059504    -0.77700
O1280       O  0.66739325  0.43075606  0.17269565    -0.65200
Ni1281     Ni  0.50268906  0.51793344  0.21237913     1.34900
C1282       C  0.65566066  0.41822817  0.18561961     0.85900
O1283       O  0.45646575  0.49016674  0.17782788    -0.78200
O1284       O  0.43279389  0.51387946  0.20034715    -0.88500
C1285       C  0.56261037  0.48520090  0.14726562     0.85400
O1286       O  0.52475441  0.56300740  0.20355695    -0.66700
O1287       O  0.73922843  0.48852084  0.17599166    -0.86000
C1288       C  0.53094145  0.57184049  0.18991578     0.86300
C1289       C  0.41909832  0.50034963  0.18756446     1.07800
H1290       H  0.63168174  0.52792831  0.17812564     0.39600
O1291       O  0.62248448  0.50232250  0.17892692    -1.08600
O1292       O  0.63725955  0.43809860  0.19650768    -0.65300
Ni1293     Ni  0.62948235  0.49045363  0.19975620     1.26300
O1294       O  0.53056844  0.54870473  0.17923233    -0.65500
O1295       O  0.71314956  0.49470751  0.20022596    -0.77800
C1296       C  0.60351911  0.50039016  0.23038715     0.85700
O1297       O  0.63067692  0.48066765  0.22084893    -0.65000
Ni1298     Ni  0.67074633  0.47837624  0.16435034     1.27400
Ni1299     Ni  0.53927842  0.49640894  0.17792180     1.26100
H1300       H  0.53438635  0.46223148  0.20064655     0.40200
O1301       O  0.04529525  0.50948559  0.02439886    -0.79800
O1302       O  0.06642369  0.50748919  0.09427960    -0.64400
O1303       O  0.05834314  0.47721919  0.05303019    -1.11000
C1304       C  0.85462718  0.48303353  0.06154892     1.07100
O1305       O  0.00262701  0.46509243  0.10110981    -0.77700
O1306       O  0.94914887  0.42181148  0.07893172    -0.65200
Ni1307     Ni  0.10772862  0.49829824  0.03812380     1.34900
C1308       C  0.95332208  0.41030996  0.06539389     0.85900
O1309       O  0.14831639  0.49084414  0.07420677    -0.78200
O1310       O  0.17558538  0.48879040  0.05001394    -0.88500
C1311       C  0.04344491  0.48773647  0.10432154     0.85400
O1312       O  0.10366412  0.54725066  0.04521940    -0.66700
O1313       O  0.86805279  0.47483756  0.07503445    -0.86000
C1314       C  0.08406693  0.56271821  0.05696807     0.86300
C1315       C  0.18697837  0.48812780  0.06400658     1.07800
H1316       H  0.96931408  0.52127919  0.07327130     0.39600
O1317       O  0.98145496  0.49611498  0.07233442    -1.08600
O1318       O  0.96403029  0.43117767  0.05440365    -0.65300
Ni1319     Ni  0.97524860  0.48291146  0.05156248     1.26300
O1320       O  0.06726947  0.54536433  0.06855295    -0.65500
O1321       O  0.89201051  0.48901243  0.05122932    -0.77800
C1322       C  0.00278842  0.48917432  0.02061962     0.85700
O1323       O  0.97340422  0.47196677  0.03037806    -0.65000
Ni1324     Ni  0.93769698  0.47017343  0.08698505     1.27400
Ni1325     Ni  0.06459628  0.49378901  0.07346153     1.26100
H1326       H  0.06733054  0.45146962  0.05297714     0.40200
O1327       O  0.53920963  0.49521264  0.02558859    -0.79800
O1328       O  0.57007152  0.50765774  0.09412607    -0.64400
O1329       O  0.55786777  0.46839202  0.05443726    -1.11000
C1330       C  0.35402489  0.48179813  0.06301746     1.07100
O1331       O  0.50167104  0.47006841  0.10243271    -0.77700
O1332       O  0.44263666  0.42555647  0.08393337    -0.65200
Ni1333     Ni  0.60459994  0.48696222  0.03850912     1.34900
C1334       C  0.45088675  0.40808714  0.07178458     0.85900
O1335       O  0.64988917  0.48545643  0.07432918    -0.78200
O1336       O  0.67444807  0.48076354  0.04994559    -0.88500
C1337       C  0.54582771  0.49050930  0.10472038     0.85400
O1338       O  0.60083137  0.53717447  0.04368766    -0.66700
O1339       O  0.36659100  0.48036683  0.07698651    -0.86000
C1340       C  0.58376192  0.55482247  0.05514381     0.86300
C1341       C  0.68748940  0.48218985  0.06384361     1.07800
H1342       H  0.47229907  0.51909249  0.07215027     0.39600
O1343       O  0.48267005  0.49362485  0.07286228    -1.08600
O1344       O  0.46329514  0.42324829  0.05932277    -0.65300
Ni1345     Ni  0.47464401  0.47352478  0.05310398     1.26300
O1346       O  0.57005446  0.53980268  0.06747382    -0.65500
O1347       O  0.39176072  0.48020359  0.05252485    -0.77800
C1348       C  0.49868797  0.47294846  0.02239796     0.85700
O1349       O  0.47158615  0.45610790  0.03267109    -0.65000
Ni1350     Ni  0.43649166  0.47578925  0.08887925     1.27400
Ni1351     Ni  0.56599886  0.48959771  0.07398282     1.26100
H1352       H  0.56726002  0.44278536  0.05523709     0.40200
O1353       O  0.29190873  0.23906434  0.22394110    -0.79800
O1354       O  0.32701569  0.23792634  0.15344842    -0.64400
O1355       O  0.30233601  0.26341453  0.19433769    -1.11000
C1356       C  0.10136829  0.24531761  0.18511814     1.07100
O1357       O  0.23963993  0.24992697  0.14333812    -0.77700
O1358       O  0.20217584  0.30188983  0.16335092    -0.65200
Ni1359     Ni  0.35038286  0.23787192  0.20856755     1.34900
C1360       C  0.19943005  0.31834678  0.17596533     0.85900
O1361       O  0.39500050  0.26452785  0.17466803    -0.78200
O1362       O  0.41807305  0.23513442  0.19561052    -0.88500
C1363       C  0.29382102  0.24226010  0.14223157     0.85400
O1364       O  0.32169929  0.19156034  0.20195124    -0.66700
O1365       O  0.11375101  0.25606431  0.17196465    -0.86000
C1366       C  0.32544120  0.17879602  0.18867078     0.86300
C1367       C  0.43270078  0.25190893  0.18375934     1.07800
H1368       H  0.23040100  0.20870562  0.17405738     0.39600
O1369       O  0.23358816  0.23495546  0.17425760    -1.08600
O1370       O  0.20059967  0.30168353  0.18861515    -0.65300
Ni1371     Ni  0.22087317  0.25155257  0.19449835     1.26300
O1372       O  0.33610204  0.19911188  0.17751353    -0.65500
O1373       O  0.14042260  0.23763964  0.19471350    -0.77800
C1374       C  0.24271805  0.25457628  0.22585929     0.85700
O1375       O  0.21211355  0.26664889  0.21501616    -0.65000
Ni1376     Ni  0.18152177  0.25279788  0.15900543     1.27400
Ni1377     Ni  0.31490286  0.24969678  0.17395010     1.26100
H1378       H  0.30802051  0.28938797  0.19559108     0.40200
O1379       O  0.79186438  0.23744903  0.22544513    -0.79800
O1380       O  0.82606894  0.23591198  0.15484630    -0.64400
O1381       O  0.80148818  0.26160030  0.19580324    -1.11000
C1382       C  0.60109190  0.24732234  0.18585278     1.07100
O1383       O  0.74000687  0.25014426  0.14455328    -0.77700
O1384       O  0.70937166  0.30293664  0.16551992    -0.65200
Ni1385     Ni  0.85038298  0.23651660  0.21006101     1.34900
C1386       C  0.70296756  0.31840979  0.17827661     0.85900
O1387       O  0.89419444  0.26214182  0.17598414    -0.78200
O1388       O  0.91850428  0.23397593  0.19710329    -0.88500
C1389       C  0.79337401  0.24048956  0.14354010     0.85400
O1390       O  0.82257590  0.18993050  0.20367236    -0.66700
O1391       O  0.61556874  0.26092502  0.17332978    -0.86000
C1392       C  0.82411651  0.17706373  0.19039116     0.86300
C1393       C  0.93238671  0.24980523  0.18495758     1.07800
H1394       H  0.72802812  0.20832042  0.17480288     0.39600
O1395       O  0.73241101  0.23449657  0.17542418    -1.08600
O1396       O  0.70016178  0.30060715  0.19061035    -0.65300
Ni1397     Ni  0.71965161  0.24993232  0.19580457     1.26300
O1398       O  0.83316707  0.19715757  0.17904301    -0.65500
O1399       O  0.63870747  0.23672111  0.19539327    -0.77800
C1400       C  0.74202260  0.25213016  0.22738832     0.85700
O1401       O  0.71053658  0.26355327  0.21655303    -0.65000
Ni1402     Ni  0.68264750  0.25533090  0.16035276     1.27400
Ni1403     Ni  0.81397719  0.24803010  0.17535199     1.26100
H1404       H  0.80714002  0.28756598  0.19702619     0.40200
O1405       O  0.32112837  0.21231725  0.02051952    -0.79800
O1406       O  0.29524416  0.21071320  0.08975605    -0.64400
O1407       O  0.30439081  0.24245287  0.04932644    -1.11000
C1408       C  0.50833063  0.23268554  0.05860187     1.07100
O1409       O  0.35951424  0.25257232  0.09717786    -0.77700
O1410       O  0.42039701  0.29393180  0.07699844    -0.65200
Ni1411     Ni  0.25688540  0.22054689  0.03394686     1.34900
C1412       C  0.41222224  0.30747623  0.06404972     0.85900
O1413       O  0.21430794  0.22867842  0.06990246    -0.78200
O1414       O  0.18728759  0.22712483  0.04564161    -0.88500
C1415       C  0.31711495  0.23100266  0.09989601     0.85400
O1416       O  0.26563147  0.17136282  0.04007677    -0.66700
O1417       O  0.49566316  0.23770833  0.07243405    -0.86000
C1418       C  0.28307696  0.15627073  0.05202526     0.86300
C1419       C  0.17563189  0.22946150  0.05959677     1.07800
H1420       H  0.39218391  0.19650275  0.06865436     0.39600
O1421       O  0.38078366  0.22187128  0.06846761    -1.08600
O1422       O  0.39784785  0.28849046  0.05259416    -0.65300
Ni1423     Ni  0.38762587  0.23727589  0.04823150     1.26300
O1424       O  0.29493402  0.17383379  0.06406865    -0.65500
O1425       O  0.47065479  0.23111632  0.04800056    -0.77800
C1426       C  0.36267048  0.23382291  0.01744224     0.85700
O1427       O  0.39042798  0.25096113  0.02764024    -0.65000
Ni1428     Ni  0.42564532  0.24481615  0.08393443     1.27400
Ni1429     Ni  0.29779404  0.22512305  0.06938202     1.26100
H1430       H  0.29465549  0.26809926  0.04950543     0.40200
O1431       O  0.82322337  0.22056748  0.02183932    -0.79800
O1432       O  0.79381887  0.20887542  0.09049169    -0.64400
O1433       O  0.80288600  0.24692424  0.05091214    -1.11000
C1434       C  0.00814822  0.23753622  0.05890899     1.07100
O1435       O  0.86388866  0.24514211  0.09933012    -0.77700
O1436       O  0.91924776  0.29119530  0.08106560    -0.65200
Ni1437     Ni  0.75761860  0.22565066  0.03494616     1.34900
C1438       C  0.90866122  0.30932371  0.06932456     0.85900
O1439       O  0.71342215  0.23011144  0.07096001    -0.78200
O1440       O  0.68760693  0.22886809  0.04655451    -0.88500
C1441       C  0.81794675  0.22615383  0.10124122     0.85400
O1442       O  0.76787082  0.17566552  0.03977431    -0.66700
O1443       O  0.99653242  0.23757328  0.07292928    -0.86000
C1444       C  0.78270843  0.15925494  0.05163292     0.86300
C1445       C  0.67528203  0.23028787  0.06049017     1.07800
H1446       H  0.89117629  0.19780627  0.06787495     0.39600
O1447       O  0.88032773  0.22314226  0.06904311    -1.08600
O1448       O  0.89492833  0.29470533  0.05664505    -0.65300
Ni1449     Ni  0.88623054  0.24427032  0.04952489     1.26300
O1450       O  0.79285341  0.17569479  0.06404281    -0.65500
O1451       O  0.96949287  0.23974134  0.04860419    -0.77800
C1452       C  0.86101729  0.24462986  0.01887162     0.85700
O1453       O  0.88662872  0.26246070  0.02933481    -0.65000
Ni1454     Ni  0.92755784  0.24080062  0.08520307     1.27400
Ni1455     Ni  0.79689856  0.22635256  0.07041900     1.26100
H1456       H  0.79146216  0.27224967  0.05167357     0.40200
O1457       O  0.32787797  0.02435050  0.22630265    -0.79800
O1458       O  0.30291936  0.02265434  0.15749717    -0.64400
O1459       O  0.31061090  0.99203238  0.19816273    -1.11000
C1460       C  0.51504739  0.99738043  0.18964536     1.07100
O1461       O  0.36516865  0.97899614  0.15069501    -0.77700
O1462       O  0.42146880  0.93701859  0.17136858    -0.65200
Ni1463     Ni  0.26297037  0.01373521  0.21335375     1.34900
C1464       C  0.41260227  0.92417558  0.18438365     0.85900
O1465       O  0.22094645  0.00726526  0.17748677    -0.78200
O1466       O  0.19407750  0.00471806  0.20172255    -0.88500
C1467       C  0.32341609  0.00093156  0.14763947     0.85400
O1468       O  0.26661276  0.06272954  0.20675645    -0.66700
O1469       O  0.50213146  0.99120905  0.17585685    -0.86000
C1470       C  0.28685851  0.07806479  0.19520861     0.86300
C1471       C  0.18245278  0.00453130  0.18771757     1.07800
H1472       H  0.40066797  0.03568281  0.17883365     0.39600
O1473       O  0.38801654  0.01058440  0.17922535    -1.08600
O1474       O  0.40167468  0.94415005  0.19579286    -0.65300
Ni1475     Ni  0.39390827  0.99587758  0.19964710     1.26300
O1476       O  0.30362660  0.06059878  0.18351072    -0.65500
O1477       O  0.47730506  0.00049584  0.20012042    -0.77800
C1478       C  0.36616978  0.00132222  0.23021604     0.85700
O1479       O  0.39501420  0.98336665  0.22047223    -0.65000
Ni1480     Ni  0.43156647  0.98554215  0.16413545     1.27400
Ni1481     Ni  0.30473959  0.00912553  0.17809813     1.26100
H1482       H  0.30021958  0.96650280  0.19790583     0.40200
O1483       O  0.83415075  0.01353680  0.22574560    -0.79800
O1484       O  0.80008635  0.02890675  0.15829109    -0.64400
O1485       O  0.81119356  0.98821794  0.19711063    -1.11000
C1486       C  0.01564696  0.99782693  0.18864765     1.07100
O1487       O  0.86728277  0.99096097  0.14929524    -0.77700
O1488       O  0.92572510  0.94468436  0.16677409    -0.65200
Ni1489     Ni  0.76657102  0.00815197  0.21327894     1.34900
C1490       C  0.91512061  0.92664986  0.17850497     0.85900
O1491       O  0.72026972  0.00633350  0.17752185    -0.78200
O1492       O  0.69542120  0.00405538  0.20192212    -0.88500
C1493       C  0.82227552  0.01098542  0.14754930     0.85400
O1494       O  0.77394728  0.05860468  0.20885427    -0.66700
O1495       O  0.00305779  0.99830323  0.17466718    -0.86000
C1496       C  0.78964764  0.07575374  0.19728992     0.86300
C1497       C  0.68249647  0.00394918  0.18796933     1.07800
H1498       H  0.89877875  0.03819222  0.18040038     0.39600
O1499       O  0.88753627  0.01295699  0.17914788    -1.08600
O1500       O  0.90225815  0.94128729  0.19113316    -0.65300
Ni1501     Ni  0.89465602  0.99108304  0.19841047     1.26300
O1502       O  0.80088766  0.06008040  0.18483293    -0.65500
O1503       O  0.97788230  0.99541971  0.19907809    -0.77800
C1504       C  0.86977241  0.98812241  0.22872782     0.85700
O1505       O  0.89656358  0.97144813  0.21825741    -0.65000
Ni1506     Ni  0.93293993  0.99523058  0.16278333     1.27400
Ni1507     Ni  0.80402363  0.00999446  0.17796189     1.26100
H1508       H  0.79993915  0.96293066  0.19605909     0.40200
O1509       O  0.30029220  0.99718984  0.02360978    -0.79800
O1510       O  0.32847481  0.99540592  0.09460231    -0.64400
O1511       O  0.30569683  0.97324982  0.05319156    -1.11000
C1512       C  0.10465414  0.99099103  0.06304793     1.07100
O1513       O  0.24675502  0.97106738  0.10367204    -0.77700
O1514       O  0.20328545  0.92655027  0.08080606    -0.65200
Ni1515     Ni  0.35625209  0.99869096  0.03960324     1.34900
C1516       C  0.20065893  0.91478376  0.06727202     0.85900
O1517       O  0.39793465  0.97054649  0.07339151    -0.78200
O1518       O  0.42221029  0.00185832  0.05319839    -0.88500
C1519       C  0.29784326  0.98441387  0.10543133     0.85400
O1520       O  0.32572918  0.04431421  0.04612340    -0.66700
O1521       O  0.11792863  0.97731073  0.07568979    -0.86000
C1522       C  0.32602272  0.05659208  0.05951972     0.86300
C1523       C  0.43613199  0.98364839  0.06473823     1.07800
H1524       H  0.23171120  0.02374011  0.07533202     0.39600
O1525       O  0.23630768  0.99775781  0.07389845    -1.08600
O1526       O  0.20363523  0.93569182  0.05594899    -0.65300
Ni1527     Ni  0.22405135  0.98648853  0.05306642     1.26300
O1528       O  0.33596045  0.03616988  0.07078240    -0.65500
O1529       O  0.14296717  0.00019748  0.05347730    -0.77800
C1530       C  0.24847620  0.98572608  0.02151966     0.85700
O1531       O  0.21475215  0.97659719  0.03212435    -0.65000
Ni1532     Ni  0.18661958  0.97447891  0.08827052     1.27400
Ni1533     Ni  0.31769532  0.98479091  0.07390552     1.26100
H1534       H  0.31051140  0.94732568  0.05161348     0.40200
O1535       O  0.79502679  0.99540000  0.02473295    -0.79800
O1536       O  0.82783359  0.00191404  0.09468565    -0.64400
O1537       O  0.80649474  0.97265945  0.05427722    -1.11000
C1538       C  0.60433067  0.98487167  0.06327258     1.07100
O1539       O  0.74332474  0.98498571  0.10493575    -0.77700
O1540       O  0.71054879  0.93118377  0.08504660    -0.65200
Ni1541     Ni  0.85289772  0.99927058  0.04010320     1.34900
C1542       C  0.70808793  0.91431066  0.07251079     0.85900
O1543       O  0.89879584  0.97617667  0.07424432    -0.78200
O1544       O  0.92028224  0.00501559  0.05316802    -0.88500
C1545       C  0.79585083  0.99622960  0.10588777     0.85400
O1546       O  0.82008031  0.04508776  0.04597365    -0.66700
O1547       O  0.61793074  0.97386383  0.07632562    -0.86000
C1548       C  0.82141514  0.05860582  0.05913953     0.86300
C1549       C  0.93584514  0.98906118  0.06515416     1.07800
H1550       H  0.72865261  0.02524990  0.07405222     0.39600
O1551       O  0.73479704  0.99919056  0.07397766    -1.08600
O1552       O  0.70761902  0.93076041  0.05979671    -0.65300
Ni1553     Ni  0.72381253  0.98156613  0.05382737     1.26300
O1554       O  0.83277433  0.03917728  0.07054762    -0.65500
O1555       O  0.64231460  0.99293488  0.05352604    -0.77800
C1556       C  0.74708310  0.97870623  0.02258922     0.85700
O1557       O  0.71658748  0.96602927  0.03327269    -0.65000
Ni1558     Ni  0.68533200  0.97957053  0.08927831     1.27400
Ni1559     Ni  0.81734818  0.98800666  0.07450705     1.26100
H1560       H  0.81468967  0.94687895  0.05330090     0.40200
O1561       O  0.99565836  0.71839675  0.22756057    -0.79800
O1562       O  0.06710874  0.73720815  0.16154944    -0.64400
O1563       O  0.03639092  0.75387623  0.20264460    -1.11000
C1564       C  0.83406632  0.75177775  0.18767724     1.07100
O1565       O  0.99523837  0.77265564  0.15282076    -0.77700
O1566       O  0.92848260  0.81133680  0.17270069    -0.65200
Ni1567     Ni  0.06887765  0.72210083  0.21733985     1.34900
C1568       C  0.93909881  0.82446993  0.18572013     0.85900
O1569       O  0.13696639  0.74811045  0.18547360    -0.78200
O1570       O  0.14592251  0.72439980  0.20860528    -0.88500
C1571       C  0.04284153  0.75488661  0.15112655     0.85400
O1572       O  0.05026801  0.67747696  0.20722581    -0.66700
O1573       O  0.85096246  0.75443632  0.17408111    -0.86000
C1574       C  0.05164288  0.66862517  0.19341634     0.86300
C1575       C  0.16802849  0.73715764  0.19662103     1.07800
H1576       H  0.95908145  0.71399648  0.17942483     0.39600
O1577       O  0.96879487  0.73954559  0.18036405    -1.08600
O1578       O  0.95231168  0.80493686  0.19697421    -0.65300
Ni1579     Ni  0.95295000  0.75323813  0.20067765     1.26300
O1580       O  0.05886212  0.69171387  0.18310899    -0.65500
O1581       O  0.86933405  0.75144732  0.19877207    -0.77800
C1582       C  0.96477161  0.74582408  0.23117953     0.85700
O1583       O  0.94297245  0.76598508  0.22119267    -0.65000
Ni1584     Ni  0.92596289  0.76291621  0.16455676     1.27400
Ni1585     Ni  0.05323210  0.74413716  0.18224076     1.26100
H1586       H  0.04929364  0.77832629  0.20504230     0.40200
O1587       O  0.51353913  0.73417541  0.22293471    -0.79800
O1588       O  0.54876887  0.71866267  0.15483442    -0.64400
O1589       O  0.53096081  0.75990047  0.19401706    -1.11000
C1590       C  0.32715396  0.74941441  0.18222749     1.07100
O1591       O  0.48534350  0.75816350  0.14547193    -0.77700
O1592       O  0.42807526  0.80444781  0.16355984    -0.65200
Ni1593     Ni  0.57921264  0.74363437  0.21024023     1.34900
C1594       C  0.43191058  0.82121484  0.17604166     0.85900
O1595       O  0.62644396  0.74198045  0.17490015    -0.78200
O1596       O  0.65022797  0.75134508  0.19908207    -0.88500
C1597       C  0.52834117  0.73645147  0.14386812     0.85400
O1598       O  0.57941213  0.69305694  0.20544038    -0.66700
O1599       O  0.34496338  0.75275841  0.16877889    -0.86000
C1600       C  0.56122950  0.67445610  0.19430772     0.86300
C1601       C  0.66405684  0.74787938  0.18526909     1.07800
H1602       H  0.44730089  0.70941896  0.17500927     0.39600
O1603       O  0.45838214  0.73482070  0.17475377    -1.08600
O1604       O  0.43700465  0.80511747  0.18867100    -0.65300
Ni1605     Ni  0.44664921  0.75429048  0.19456441     1.26300
O1606       O  0.54512945  0.68849570  0.18191607    -0.65500
O1607       O  0.36166642  0.74802160  0.19369488    -0.77800
C1608       C  0.47065270  0.75497166  0.22591061     0.85700
O1609       O  0.44127290  0.77024882  0.21540776    -0.65000
Ni1610     Ni  0.41741627  0.75478026  0.15811686     1.27400
Ni1611     Ni  0.54207902  0.73807370  0.17468663     1.26100
H1612       H  0.53956001  0.78553148  0.19298350     0.40200
O1613       O  0.08191042  0.72120837  0.02889184    -0.79800
O1614       O  0.04711613  0.72672754  0.09908348    -0.64400
O1615       O  0.06756542  0.74966507  0.05793330    -1.11000
C1616       C  0.27247886  0.73793279  0.07015938     1.07100
O1617       O  0.12018733  0.76068788  0.10749867    -0.77700
O1618       O  0.18065141  0.79823846  0.08754034    -0.65200
Ni1619     Ni  0.02162486  0.72164466  0.04385407     1.34900
C1620       C  0.17199071  0.81331625  0.07499534     0.85900
O1621       O  0.97445384  0.74765124  0.07812271    -0.78200
O1622       O  0.95217449  0.72027475  0.05643004    -0.88500
C1623       C  0.07177129  0.74462062  0.10944151     0.85400
O1624       O  0.04975652  0.67591627  0.05092665    -0.66700
O1625       O  0.25538557  0.74128638  0.08364796    -0.86000
C1626       C  0.05006180  0.66439581  0.06432653     0.86300
C1627       C  0.93714338  0.73542245  0.06879004     1.07800
H1628       H  0.14657611  0.70307159  0.07869688     0.39600
O1629       O  0.13935048  0.72900540  0.07837640    -1.08600
O1630       O  0.16098842  0.79579406  0.06276587    -0.65300
Ni1631     Ni  0.15183286  0.74393549  0.05789809     1.26300
O1632       O  0.04327890  0.68562704  0.07556705    -0.65500
O1633       O  0.23738983  0.73789938  0.05877807    -0.77800
C1634       C  0.12545405  0.74160992  0.02615155     0.85700
O1635       O  0.15673071  0.75610186  0.03667446    -0.65000
Ni1636     Ni  0.18482409  0.74978894  0.09440598     1.27400
Ni1637     Ni  0.05642729  0.73755430  0.07851876     1.26100
H1638       H  0.05770159  0.77507152  0.05662387     0.40200
O1639       O  0.60728729  0.70126257  0.02693215    -0.79800
O1640       O  0.53473040  0.72647599  0.09170981    -0.64400
O1641       O  0.56607109  0.74122597  0.05054700    -1.11000
C1642       C  0.76768824  0.73639021  0.06590345     1.07100
O1643       O  0.60529044  0.76411258  0.09989876    -0.77700
O1644       O  0.67587123  0.80059754  0.07988144    -0.65200
Ni1645     Ni  0.53230367  0.71006683  0.03552033     1.34900
C1646       C  0.66792383  0.81228625  0.06658214     0.85900
O1647       O  0.46382652  0.73543130  0.06742236    -0.78200
O1648       O  0.45459805  0.71754153  0.04317847    -0.88500
C1649       C  0.55925004  0.74511575  0.10202008     0.85400
O1650       O  0.54128546  0.66486416  0.04560218    -0.66700
O1651       O  0.75042237  0.74208662  0.07935507    -0.86000
C1652       C  0.54569137  0.65641817  0.05933103     0.86300
C1653       C  0.43268738  0.72797423  0.05565994     1.07800
H1654       H  0.64252374  0.70270259  0.07420736     0.39600
O1655       O  0.63278506  0.72813126  0.07295500    -1.08600
O1656       O  0.65389879  0.79146550  0.05559029    -0.65300
Ni1657     Ni  0.64979882  0.73909309  0.05262027     1.26300
O1658       O  0.54476494  0.67983381  0.06988931    -0.65500
O1659       O  0.73301368  0.73502161  0.05470614    -0.77800
C1660       C  0.63800747  0.72771209  0.02256874     0.85700
O1661       O  0.66136724  0.74889605  0.03205828    -0.65000
Ni1662     Ni  0.67538367  0.75280010  0.08856579     1.27400
Ni1663     Ni  0.54829163  0.73231581  0.07089719     1.26100
H1664       H  0.55447470  0.76591736  0.04828854     0.40200
C1665       C  0.83097897  0.73108602  0.06271431    -0.15300
C1666       C  0.87401216  0.73876833  0.07265712    -0.30500
H1667       H  0.84257147  0.72199159  0.05145081     0.13700
H1668       H  0.86278030  0.74911682  0.08376197     0.14300
C1669       C  0.33734838  0.73460851  0.06876461    -0.15300
C1670       C  0.36740308  0.73125416  0.05594539    -0.30500
H1671       H  0.36208443  0.73524781  0.07923584     0.13700
H1672       H  0.34358531  0.72975131  0.04536080     0.14300
C1673       C  0.55725122  0.73408711  0.12911722    -0.15300
C1674       C  0.53069280  0.74660202  0.11669670    -0.30500
H1675       H  0.60064316  0.72197403  0.12838427     0.13700
H1676       H  0.48570986  0.75625853  0.11712445     0.14300
C1677       C  0.72697286  0.75047869  0.18095542    -0.15300
C1678       C  0.77055771  0.74927632  0.19124246    -0.30500
H1679       H  0.73761507  0.75239389  0.16910394     0.13700
H1680       H  0.75931109  0.74662779  0.20303437     0.14300
C1681       C  0.23323042  0.73907554  0.19613931    -0.15300
C1682       C  0.26233387  0.74774317  0.18364669    -0.30500
H1683       H  0.25775615  0.73254285  0.20625174     0.13700
H1684       H  0.23714888  0.75316150  0.17351152     0.14300
C1685       C  0.07209833  0.75519507  0.13658127    -0.15300
C1686       C  0.04218549  0.74779413  0.12397004    -0.30500
H1687       H  0.11954477  0.75757374  0.13636916     0.13700
H1688       H  0.99554956  0.74194483  0.12448000     0.14300
C1689       C  0.70435124  0.87393801  0.07351596    -0.15300
C1690       C  0.67599945  0.85201851  0.06363533    -0.30500
H1691       H  0.72074070  0.86215752  0.08387490     0.13700
H1692       H  0.65870059  0.86328914  0.05328340     0.14300
C1693       C  0.49855381  0.97873296  0.06858895    -0.15300
C1694       C  0.54184340  0.98840480  0.05920133    -0.30500
H1695       H  0.50905524  0.96668180  0.07937466     0.13700
H1696       H  0.53124072  0.99973279  0.04828569     0.14300
C1697       C  0.04178807  0.99576310  0.05929916    -0.15300
C1698       C  0.99888075  0.98594338  0.06885687    -0.30500
H1699       H  0.03059794  0.00705443  0.04841812     0.13700
H1700       H  0.01020142  0.97425890  0.07965766     0.14300
C1701       C  0.17484756  0.85345973  0.07563916    -0.15300
C1702       C  0.19270545  0.87507717  0.06449753    -0.30500
H1703       H  0.16681402  0.86561568  0.08663748     0.13700
H1704       H  0.20143083  0.86368130  0.05341440     0.14300
C1705       C  0.91825310  0.88667051  0.17689253    -0.15300
C1706       C  0.93459690  0.86443113  0.18806895    -0.30500
H1707       H  0.91075241  0.87544027  0.16570115     0.13700
H1708       H  0.94433666  0.87571885  0.19913763     0.14300
C1709       C  0.79304125  0.01089096  0.13287003    -0.15300
C1710       C  0.82315029  0.00133920  0.12059811    -0.30500
H1711       H  0.74677697  0.01771022  0.13214647     0.13700
H1712       H  0.87027834  0.99724439  0.12130676     0.14300
C1713       C  0.62040067  0.00073492  0.18359876    -0.15300
C1714       C  0.57721738  0.00096935  0.19385090    -0.30500
H1715       H  0.61004249  0.99831947  0.17170023     0.13700
H1716       H  0.58761303  0.00405338  0.20572325     0.14300
C1717       C  0.07740966  0.00017559  0.19314122    -0.15300
C1718       C  0.12093364  0.00132063  0.18303564    -0.30500
H1719       H  0.08720020  0.00100125  0.20510201     0.13700
H1720       H  0.11125140  0.00049601  0.17106960     0.14300
C1721       C  0.41595305  0.88405718  0.18652304    -0.15300
C1722       C  0.43018038  0.86144893  0.17512048    -0.30500
H1723       H  0.40679747  0.87303191  0.19754941     0.13700
H1724       H  0.43787488  0.87283232  0.16407373     0.14300
C1725       C  0.32435692  0.98602015  0.12056118    -0.15300
C1726       C  0.29565450  0.99933981  0.13258407    -0.30500
H1727       H  0.37016975  0.97834292  0.12162598     0.13700
H1728       H  0.25154116  0.01004884  0.13125796     0.14300
C1729       C  0.81093357  0.09818799  0.06141798    -0.15300
C1730       C  0.78954290  0.11920164  0.05037351    -0.30500
H1731       H  0.82104732  0.11019367  0.07233256     0.13700
H1732       H  0.77890922  0.10674643  0.03956543     0.14300
C1733       C  0.31529054  0.09601974  0.06205636    -0.15300
C1734       C  0.29101120  0.11636728  0.05117987    -0.30500
H1735       H  0.32689904  0.10824866  0.07282964     0.13700
H1736       H  0.27859301  0.10333639  0.04060950     0.14300
C1737       C  0.57023259  0.22905711  0.05451968    -0.15300
C1738       C  0.61337940  0.23233293  0.06477211    -0.30500
H1739       H  0.58052188  0.22443298  0.04273922     0.13700
H1740       H  0.60317938  0.23666937  0.07657324     0.14300
C1741       C  0.11403561  0.23307814  0.06423043    -0.15300
C1742       C  0.06980194  0.23468440  0.05422602    -0.30500
H1743       H  0.10492560  0.23419575  0.07620256     0.13700
H1744       H  0.07892048  0.23378324  0.04225213     0.14300
C1745       C  0.79602701  0.11571784  0.19889277    -0.15300
C1746       C  0.81596948  0.13738400  0.18792886    -0.30500
H1747       H  0.78546421  0.12760364  0.20979074     0.13700
H1748       H  0.82574477  0.12594781  0.17691039     0.14300
C1749       C  0.82031296  0.23585379  0.12860956    -0.15300
C1750       C  0.78994199  0.22640778  0.11619465    -0.30500
H1751       H  0.86728253  0.24027143  0.12784963     0.13700
H1752       H  0.74380257  0.21948197  0.11699204     0.14300
C1753       C  0.31813364  0.13911941  0.18601218    -0.15300
C1754       C  0.29180011  0.11816626  0.19624435    -0.30500
H1755       H  0.33391844  0.12717882  0.17556627     0.13700
H1756       H  0.27511805  0.13090411  0.20645744     0.14300
C1757       C  0.53824035  0.24436151  0.18957482    -0.15300
C1758       C  0.49554875  0.25568552  0.18016790    -0.30500
H1759       H  0.52686914  0.23227149  0.20026647     0.13700
H1760       H  0.50688416  0.26807620  0.16953269     0.14300
C1761       C  0.03916183  0.24206332  0.18960284    -0.15300
C1762       C  0.99478001  0.25308222  0.18070623    -0.30500
H1763       H  0.02975512  0.23061582  0.20054355     0.13700
H1764       H  0.00437268  0.26508335  0.16988117     0.14300
C1765       C  0.32075555  0.23955147  0.12725806    -0.15300
C1766       C  0.28982415  0.23132240  0.11485314    -0.30500
H1767       H  0.36768701  0.24408712  0.12643728     0.13700
H1768       H  0.24385833  0.22399790  0.11571840     0.14300
C1769       C  0.57846856  0.59457326  0.05323928    -0.15300
C1770       C  0.55338404  0.61753661  0.06316025    -0.30500
H1771       H  0.59335883  0.60522597  0.04255352     0.13700
H1772       H  0.53983338  0.60800386  0.07412453     0.14300
C1773       C  0.44518567  0.36813780  0.07280426    -0.15300
C1774       C  0.42114990  0.34717083  0.06196178    -0.30500
H1775       H  0.45601559  0.35609405  0.08357359     0.13700
H1776       H  0.40859037  0.35924767  0.05132229     0.14300
C1777       C  0.07973368  0.60289614  0.05621382    -0.15300
C1778       C  0.05763207  0.62476261  0.06699109    -0.30500
H1779       H  0.09358875  0.61502515  0.04571228     0.13700
H1780       H  0.04507932  0.61359534  0.07776440     0.14300
C1781       C  0.79214981  0.48514540  0.05764683    -0.15300
C1782       C  0.74979081  0.48033560  0.06795111    -0.30500
H1783       H  0.78076254  0.49065270  0.04601885     0.13700
H1784       H  0.76094889  0.47593070  0.07967490     0.14300
C1785       C  0.24849100  0.48434580  0.06866934    -0.15300
C1786       C  0.29227400  0.48528316  0.05861255    -0.30500
H1787       H  0.25794833  0.48136905  0.08057213     0.13700
H1788       H  0.28266478  0.48839278  0.04672285     0.14300
C1789       C  0.91318275  0.34938813  0.07121990    -0.15300
C1790       C  0.94389358  0.37090165  0.06197208    -0.30500
H1791       H  0.89727557  0.36079834  0.08175982     0.13700
H1792       H  0.96099112  0.35963589  0.05153353     0.14300
C1793       C  0.53861601  0.61075581  0.18619883    -0.15300
C1794       C  0.55717632  0.63478504  0.19664364    -0.30500
H1795       H  0.52960590  0.61961104  0.17480822     0.13700
H1796       H  0.56809881  0.62508973  0.20781971     0.14300
C1797       C  0.66524376  0.37849766  0.18803224    -0.15300
C1798       C  0.69677595  0.35856133  0.17809044    -0.30500
H1799       H  0.64657060  0.36565347  0.19785359     0.13700
H1800       H  0.71454724  0.37189377  0.16826191     0.14300
C1801       C  0.57099832  0.49246626  0.11997778    -0.15300
C1802       C  0.53885945  0.48340292  0.13197470    -0.30500
H1803       H  0.61573059  0.50200068  0.12145750     0.13700
H1804       H  0.49268236  0.47688264  0.13066601     0.14300
C1805       C  0.01843705  0.60669538  0.19851339    -0.15300
C1806       C  0.04507337  0.62970942  0.18915095    -0.30500
H1807       H  0.99986237  0.61756707  0.20887161     0.13700
H1808       H  0.06284223  0.61993615  0.17854388     0.14300
C1809       C  0.85667180  0.49041482  0.18405618    -0.15300
C1810       C  0.81345022  0.49561147  0.19413313    -0.30500
H1811       H  0.84648210  0.48560282  0.17226395     0.13700
H1812       H  0.82379812  0.50096951  0.20588049     0.14300
C1813       C  0.31399022  0.50103629  0.19399067    -0.15300
C1814       C  0.35672940  0.49613347  0.18377376    -0.30500
H1815       H  0.32483046  0.50844848  0.20552443     0.13700
H1816       H  0.34589909  0.48774230  0.17235034     0.14300
C1817       C  0.19309380  0.35851913  0.17525385    -0.15300
C1818       C  0.16776626  0.37919993  0.18599110    -0.30500
H1819       H  0.20566586  0.37119283  0.16476380     0.13700
H1820       H  0.15436472  0.36679301  0.19646036     0.14300
C1821       C  0.03647971  0.49653586  0.13211369    -0.15300
C1822       C  0.06863060  0.48868198  0.11977258    -0.30500
H1823       H  0.99078825  0.50420051  0.13076115     0.13700
H1824       H  0.11541570  0.48400623  0.12094676     0.14300
C1825       C  0.88538629  0.99936603  0.81684876    -0.15300
C1826       C  0.92800268  0.99737665  0.80639463    -0.30500
H1827       H  0.89641227  0.00306049  0.82865604     0.13700
H1828       H  0.91694792  0.99369759  0.79458906     0.14300
C1829       C  0.42905356  0.00382606  0.80516847    -0.15300
C1830       C  0.38584970  0.00805923  0.81528704    -0.30500
H1831       H  0.41879520  0.99807702  0.79344508     0.13700
H1832       H  0.39619018  0.01297184  0.82706435     0.14300
C1833       C  0.75846321  0.98950875  0.99557401    -0.15300
C1834       C  0.72663778  0.97530539  0.00690066    -0.30500
H1835       H  0.80006881  0.00282973  0.99787996     0.13700
H1836       H  0.68482823  0.96216805  0.00466650     0.14300
C1837       C  0.66674719  0.98417653  0.88175911    -0.15300
C1838       C  0.70089314  0.98593426  0.86945149    -0.30500
H1839       H  0.61959719  0.98139995  0.88049923     0.13700
H1840       H  0.74824912  0.98566790  0.87074108     0.14300
C1841       C  0.25812288  0.99571255  0.99435289    -0.15300
C1842       C  0.22684874  0.98295319  0.00598699    -0.30500
H1843       H  0.29993251  0.00914653  0.99626941     0.13700
H1844       H  0.18439549  0.97030690  0.00409653     0.14300
C1845       C  0.94638023  0.98073381  0.94204514    -0.15300
C1846       C  0.98855628  0.98750301  0.93186369    -0.30500
H1847       H  0.95807513  0.97175958  0.95326399     0.13700
H1848       H  0.97692293  0.99743080  0.92078259     0.14300
C1849       C  0.44515934  0.99094879  0.94287300    -0.15300
C1850       C  0.48868749  0.99831115  0.93320340    -0.30500
H1851       H  0.45523533  0.98450991  0.95449644     0.13700
H1852       H  0.47906135  0.00356543  0.92145525     0.14300
C1853       C  0.17159126  0.98811117  0.87982569    -0.15300
C1854       C  0.20706672  0.98768752  0.86782809    -0.30500
H1855       H  0.12435050  0.98679851  0.87832314     0.13700
H1856       H  0.25430311  0.98603881  0.86925230     0.14300
C1857       C  0.06474445  0.13453272  0.81168222    -0.15300
C1858       C  0.08843208  0.11197056  0.82185080    -0.30500
H1859       H  0.05027055  0.12397010  0.80083820     0.13700
H1860       H  0.10108651  0.12279485  0.83280709     0.14300
C1861       C  0.71118342  0.25855324  0.80958749    -0.15300
C1862       C  0.75402840  0.25267192  0.81979685    -0.30500
H1863       H  0.72218550  0.26646716  0.79821192     0.13700
H1864       H  0.74315613  0.24333732  0.83099148     0.14300
C1865       C  0.25449232  0.25280361  0.81968654    -0.15300
C1866       C  0.21013742  0.25963392  0.81009120    -0.30500
H1867       H  0.24525256  0.24261393  0.83085115     0.13700
H1868       H  0.21941444  0.26887799  0.79878772     0.14300
C1869       C  0.56654032  0.13444376  0.81054529    -0.15300
C1870       C  0.59467345  0.11298724  0.82049587    -0.30500
H1871       H  0.54853633  0.12274040  0.80026160     0.13700
H1872       H  0.61092634  0.12499286  0.83091964     0.14300
C1873       C  0.84949152  0.23118315  0.99180920    -0.15300
C1874       C  0.87694871  0.24988166  0.00299546    -0.30500
H1875       H  0.81467373  0.21209223  0.99436765     0.13700
H1876       H  0.91167257  0.26906860  0.00047413     0.14300
C1877       C  0.82141665  0.12482193  0.92564552    -0.15300
C1878       C  0.80016612  0.10344563  0.93654218    -0.30500
H1879       H  0.83129503  0.11263759  0.91476067     0.13700
H1880       H  0.78920259  0.11532851  0.94740710     0.14300
C1881       C  0.92843022  0.26107274  0.87898130    -0.15300
C1882       C  0.93642781  0.23258169  0.86968824    -0.30500
H1883       H  0.94116605  0.28834640  0.87563864     0.13700
H1884       H  0.92940637  0.20497830  0.87362520     0.14300
C1885       C  0.34997604  0.22201888  0.99033747    -0.15300
C1886       C  0.37988953  0.23812921  0.00169008    -0.30500
H1887       H  0.31319574  0.20418058  0.99262690     0.13700
H1888       H  0.41674608  0.25590014  0.99936624     0.14300
C1889       C  0.61298527  0.23677038  0.92882063    -0.15300
C1890       C  0.65589306  0.23575649  0.93927462    -0.30500
H1891       H  0.62361198  0.23639484  0.91693047     0.13700
H1892       H  0.64517525  0.23708401  0.95115444     0.14300
C1893       C  0.15598238  0.23983622  0.93895966    -0.15300
C1894       C  0.11178970  0.24240996  0.92895684    -0.30500
H1895       H  0.14668870  0.23982663  0.95092735     0.13700
H1896       H  0.12094693  0.24316610  0.91699281     0.14300
C1897       C  0.29193127  0.10446927  0.93451724    -0.15300
C1898       C  0.31226752  0.12562127  0.92343688    -0.30500
H1899       H  0.28137963  0.11652444  0.94537961     0.13700
H1900       H  0.32121146  0.11354674  0.91247967     0.14300
C1901       C  0.42952925  0.25869964  0.87785995    -0.15300
C1902       C  0.43835090  0.23026819  0.86858266    -0.30500
H1903       H  0.44154291  0.28607014  0.87447875     0.13700
H1904       H  0.43211026  0.20259560  0.87252549     0.14300
C1905       C  0.69238146  0.86246769  0.81584303    -0.15300
C1906       C  0.71030321  0.88326460  0.80436143    -0.30500
H1907       H  0.68496217  0.87462147  0.82685553     0.13700
H1908       H  0.71868068  0.87039251  0.79352088     0.14300
C1909       C  0.20242812  0.86670615  0.81393934    -0.15300
C1910       C  0.22368431  0.88767315  0.80288270    -0.30500
H1911       H  0.19027342  0.87870690  0.82469488     0.13700
H1912       H  0.23573252  0.87517608  0.79220340     0.14300
C1913       C  0.99834386  0.76558785  0.81278521    -0.15300
C1914       C  0.96699509  0.73896519  0.81903132    -0.30500
H1915       H  0.97541399  0.78747783  0.80708229     0.13700
H1916       H  0.99018846  0.71738419  0.82486692     0.14300
C1917       C  0.46023313  0.75795362  0.81323166    -0.15300
C1918       C  0.50449662  0.74842127  0.82255043    -0.30500
H1919       H  0.47083692  0.76904131  0.80230316     0.13700
H1920       H  0.49410933  0.73697929  0.83343006     0.14300
C1921       C  0.60535393  0.72059336  0.99675089    -0.15300
C1922       C  0.64238544  0.73569766  0.00670680    -0.30500
H1923       H  0.57503641  0.69924560  0.99995858     0.13700
H1924       H  0.67294876  0.75678946  0.00335155     0.14300
C1925       C  0.67998007  0.85711686  0.94111737    -0.15300
C1926       C  0.64622871  0.88012230  0.94900485    -0.30500
H1927       H  0.70306702  0.86661453  0.93125168     0.13700
H1928       H  0.62285007  0.86993914  0.95872067     0.14300
C1929       C  0.70887909  0.74586440  0.88729845    -0.15300
C1930       C  0.67802651  0.75228151  0.87479912    -0.30500
H1931       H  0.75616128  0.74245514  0.88690365     0.13700
H1932       H  0.63137042  0.75811799  0.87541137     0.14300
C1933       C  0.10374638  0.73523994  0.99857690    -0.15300
C1934       C  0.13952801  0.74745196  0.00993143    -0.30500
H1935       H  0.06409021  0.72040987  0.00128525     0.13700
H1936       H  0.17919455  0.76232982  0.00728084     0.14300
C1937       C  0.17502948  0.87569616  0.93767026    -0.15300
C1938       C  0.19615846  0.85433761  0.94858233    -0.30500
H1939       H  0.16355067  0.86413217  0.92676351     0.13700
H1940       H  0.20910043  0.86660866  0.95926488     0.14300
C1941       C  0.90309641  0.73055573  0.94009925    -0.15300
C1942       C  0.87102586  0.75175782  0.94921934    -0.30500
H1943       H  0.88012056  0.71369117  0.93186813     0.13700
H1944       H  0.89320299  0.76906054  0.95742686     0.14300
C1945       C  0.41041739  0.73868087  0.94420372    -0.15300
C1946       C  0.36538218  0.73902643  0.93440686    -0.30500
H1947       H  0.40123619  0.73884307  0.95617945     0.13700
H1948       H  0.37412327  0.73878600  0.92241504     0.14300
C1949       C  0.19283072  0.74540735  0.88363232    -0.15300
C1950       C  0.16314073  0.74174788  0.87056711    -0.30500
H1951       H  0.23923403  0.75191588  0.88333878     0.13700
H1952       H  0.11580496  0.73878232  0.87077727     0.14300
C1953       C  0.96143876  0.38481074  0.80250308    -0.15300
C1954       C  0.94320973  0.36378729  0.81386237    -0.30500
H1955       H  0.97077728  0.37222027  0.79165726     0.13700
H1956       H  0.93518719  0.37556870  0.82491310     0.14300
C1957       C  0.82612277  0.61464015  0.81378720    -0.15300
C1958       C  0.78937242  0.63323582  0.82277882    -0.30500
H1959       H  0.85043842  0.62872048  0.80513307     0.13700
H1960       H  0.76563592  0.61862165  0.83139950     0.14300
C1961       C  0.45713131  0.38819258  0.80307144    -0.15300
C1962       C  0.44143785  0.36624640  0.81441219    -0.30500
H1963       H  0.46385191  0.37638179  0.79195348     0.13700
H1964       H  0.43614636  0.37715596  0.82571955     0.14300
C1965       C  0.63280383  0.50137292  0.81571002    -0.15300
C1966       C  0.67498289  0.49766122  0.80522449    -0.30500
H1967       H  0.64437391  0.50576366  0.82744570     0.13700
H1968       H  0.66349186  0.49315848  0.79349105     0.14300
C1969       C  0.17573164  0.50073998  0.80689131    -0.15300
C1970       C  0.13128460  0.50142299  0.81670311    -0.30500
H1971       H  0.16698583  0.49851225  0.79490234     0.13700
H1972       H  0.13993679  0.50412075  0.82868284     0.14300
C1973       C  0.32764607  0.61619572  0.82428727    -0.15300
C1974       C  0.30658832  0.63905991  0.81386036    -0.30500
H1975       H  0.33565896  0.62647522  0.83560847     0.13700
H1976       H  0.29734746  0.62912345  0.80255286     0.14300
C1977       C  0.01759123  0.50111974  0.99327369    -0.15300
C1978       C  0.98614027  0.48619224  0.00456755    -0.30500
H1979       H  0.05655039  0.51707533  0.99577092     0.13700
H1980       H  0.94730657  0.47020621  0.00196772     0.14300
C1981       C  0.92042021  0.37960388  0.93608413    -0.15300
C1982       C  0.94208301  0.35676973  0.94642809    -0.30500
H1983       H  0.90716935  0.36926280  0.92510267     0.13700
H1984       H  0.95688812  0.36765939  0.95719753     0.14300
C1985       C  0.06096151  0.60035318  0.92671143    -0.15300
C1986       C  0.07042371  0.62316770  0.93834705    -0.30500
H1987       H  0.06139447  0.61114049  0.91537745     0.13700
H1988       H  0.07082075  0.61285172  0.94974628     0.14300
C1989       C  0.91953483  0.49603251  0.87887624    -0.15300
C1990       C  0.95236846  0.49434534  0.86642423    -0.30500
H1991       H  0.87215356  0.49809036  0.87796801     0.13700
H1992       H  0.99908503  0.48897127  0.86733117     0.14300
C1993       C  0.51331139  0.48400798  0.99541675    -0.15300
C1994       C  0.48121892  0.46895040  0.00651466    -0.30500
H1995       H  0.55387677  0.49821159  0.99805161     0.13700
H1996       H  0.44130324  0.45401745  0.00393404     0.14300
C1997       C  0.44724594  0.35298662  0.94573551    -0.15300
C1998       C  0.42880047  0.37674157  0.93531243    -0.30500
H1999       H  0.45913972  0.36310411  0.95686047     0.13700
H2000       H  0.41826730  0.36729824  0.92401115     0.14300
C2001       C  0.70400193  0.48371350  0.94170058    -0.15300
C2002       C  0.74602234  0.49561034  0.93229700    -0.30500
H2003       H  0.71585801  0.47128192  0.95231780     0.13700
H2004       H  0.73398512  0.50846016  0.92177754     0.14300
C2005       C  0.24700020  0.48812233  0.93088381    -0.15300
C2006       C  0.20335247  0.47818549  0.94011482    -0.30500
H2007       H  0.23677389  0.49943854  0.91993980     0.13700
H2008       H  0.21325659  0.46888757  0.95139801     0.14300
C2009       C  0.55603151  0.60346037  0.93969815    -0.15300
C2010       C  0.57395023  0.62703465  0.92913776    -0.30500
H2011       H  0.54820506  0.61309134  0.95109872     0.13700
H2012       H  0.58019210  0.61706695  0.91771151     0.14300
C2013       C  0.42421203  0.50011115  0.88089537    -0.15300
C2014       C  0.45650792  0.49394919  0.86857162    -0.30500
H2015       H  0.37703322  0.50344980  0.87991731     0.13700
H2016       H  0.50276227  0.48733341  0.86961903     0.14300
C2017       C  0.75406716  0.76231123  0.74929864    -0.15300
C2018       C  0.78567406  0.74878412  0.76099696    -0.30500
H2019       H  0.71063518  0.77348220  0.75124929     0.13700
H2020       H  0.82879542  0.73716168  0.75904477     0.14300
C2021       C  0.25019510  0.76184114  0.74570569    -0.15300
C2022       C  0.28125220  0.75008418  0.75760388    -0.30500
H2023       H  0.20793620  0.77497938  0.74729153     0.13700
H2024       H  0.32404692  0.73760096  0.75608713     0.14300
C2025       C  0.56451182  0.74971047  0.69488081    -0.15300
C2026       C  0.52259264  0.75896127  0.68484591    -0.30500
H2027       H  0.55255921  0.73907629  0.70579471     0.13700
H2028       H  0.53465945  0.77069002  0.67413368     0.14300
C2029       C  0.02147186  0.75962170  0.68360133    -0.15300
C2030       C  0.06630377  0.75246012  0.69299627    -0.30500
H2031       H  0.03005695  0.76829437  0.67218165     0.13700
H2032       H  0.05762845  0.74434302  0.70448315     0.14300
C2033       C  0.80306324  0.75176873  0.62104867    -0.15300
C2034       C  0.83851817  0.75440269  0.63322097    -0.30500
H2035       H  0.75614893  0.74891052  0.62265989     0.13700
H2036       H  0.88570066  0.75366918  0.63170262     0.14300
C2037       C  0.57231363  0.74523989  0.55947468    -0.15300
C2038       C  0.61605945  0.74701552  0.56966346    -0.30500
H2039       H  0.58196694  0.74302517  0.54755330     0.13700
H2040       H  0.60647179  0.74949920  0.58158168     0.14300
C2041       C  0.07333484  0.74512306  0.55798672    -0.15300
C2042       C  0.11596339  0.75135601  0.56826883    -0.30500
H2043       H  0.08460118  0.73667639  0.54662362     0.13700
H2044       H  0.10461947  0.76041719  0.57955185     0.14300
C2045       C  0.30105258  0.76291807  0.62067218    -0.15300
C2046       C  0.33834260  0.76975449  0.63203740    -0.30500
H2047       H  0.25502499  0.75778821  0.62289437     0.13700
H2048       H  0.38520468  0.77133045  0.63002210     0.14300
C2049       C  0.65318853  0.99590233  0.74277890    -0.15300
C2050       C  0.62244834  0.01111514  0.75425231    -0.30500
H2051       H  0.69047214  0.97837103  0.74509740     0.13700
H2052       H  0.58538068  0.02881687  0.75193171     0.14300
C2053       C  0.69252973  0.89237058  0.67763338    -0.15300
C2054       C  0.70978877  0.87135847  0.68916354    -0.30500
H2055       H  0.68714452  0.87983824  0.66659177     0.13700
H2056       H  0.71637421  0.88339134  0.70024577     0.14300
C2057       C  0.15341249  0.00127953  0.74256339    -0.15300
C2058       C  0.12013896  0.01430276  0.75400964    -0.30500
H2059       H  0.19275489  0.98558145  0.74488706     0.13700
H2060       H  0.08116335  0.03036173  0.75170957     0.14300
C2061       C  0.84442664  0.01289236  0.68989200    -0.15300
C2062       C  0.88749404  0.00478680  0.68007605    -0.30500
H2063       H  0.85514246  0.02210629  0.70121651     0.13700
H2064       H  0.87666203  0.99409977  0.66897541     0.14300
C2065       C  0.34369620  0.01186236  0.69015959    -0.15300
C2066       C  0.38667796  0.00358838  0.68034908    -0.30500
H2067       H  0.35451075  0.02158298  0.70140597     0.13700
H2068       H  0.37577589  0.99375085  0.66912233     0.14300
C2069       C  0.18315626  0.89627911  0.67783473    -0.15300
C2070       C  0.21110122  0.87597185  0.68819504    -0.30500
H2071       H  0.16730580  0.88306506  0.66761566     0.13700
H2072       H  0.22815493  0.88866788  0.69838757     0.14300
C2073       C  0.43964142  0.88833278  0.56164870    -0.15300
C2074       C  0.42582129  0.86530755  0.57266912    -0.30500
H2075       H  0.44416780  0.87836341  0.55017242     0.13700
H2076       H  0.42338516  0.87563374  0.58414499     0.14300
C2077       C  0.59253380  0.99551013  0.61573511    -0.15300
C2078       C  0.56123443  0.00168036  0.62824968    -0.30500
H2079       H  0.64005057  0.99426755  0.61627928     0.13700
H2080       H  0.51423110  0.00608191  0.62739423     0.14300
C2081       C  0.78189761  0.00088704  0.56688055    -0.15300
C2082       C  0.74900912  0.00277210  0.55431084    -0.30500
H2083       H  0.75965466  0.00144252  0.57765542     0.13700
H2084       H  0.77115129  0.00284058  0.54352809     0.14300
C2085       C  0.24944387  0.00006123  0.55486539    -0.15300
C2086       C  0.28203507  0.00483998  0.56739286    -0.30500
H2087       H  0.27208663  0.99480394  0.54434451     0.13700
H2088       H  0.25971873  0.00919868  0.57802288     0.14300
C2089       C  0.94776335  0.88493571  0.57125596    -0.15300
C2090       C  0.91780046  0.86295841  0.56171711    -0.30500
H2091       H  0.96495536  0.87327060  0.58155579     0.13700
H2092       H  0.89971070  0.87386568  0.55138764     0.14300
C2093       C  0.06273495  0.00970878  0.62783916    -0.15300
C2094       C  0.09341795  0.01255949  0.61511208    -0.30500
H2095       H  0.01535257  0.00682784  0.62729099     0.13700
H2096       H  0.14011267  0.01824215  0.61541609     0.14300
C2097       C  0.56533533  0.11990927  0.56112958    -0.15300
C2098       C  0.55183334  0.14331407  0.55014297    -0.30500
H2099       H  0.56712273  0.12919150  0.57275542     0.13700
H2100       H  0.54946779  0.13349894  0.53858495     0.14300
C2101       C  0.05430652  0.13760714  0.56290583    -0.15300
C2102       C  0.07379272  0.11626441  0.55155143    -0.30500
H2103       H  0.04434565  0.12593979  0.57376767     0.13700
H2104       H  0.08465717  0.12863291  0.54087090     0.14300
C2105       C  0.82173568  0.24107395  0.55848747    -0.15300
C2106       C  0.86442464  0.24924221  0.56850594    -0.30500
H2107       H  0.83287217  0.23128340  0.54729315     0.13700
H2108       H  0.85316206  0.25986131  0.57956742     0.14300
C2109       C  0.32184206  0.24330954  0.56068529    -0.15300
C2110       C  0.36614208  0.24897487  0.57048061    -0.30500
H2111       H  0.33144324  0.23618003  0.54907068     0.13700
H2112       H  0.35679095  0.25686207  0.58202718     0.14300
C2113       C  0.48895348  0.27366486  0.74429929    -0.15300
C2114       C  0.51852008  0.25607600  0.75529255    -0.30500
H2115       H  0.45165754  0.29094225  0.74696486     0.13700
H2116       H  0.55621392  0.23921337  0.75252488     0.14300
C2117       C  0.56419264  0.11954662  0.68715165    -0.15300
C2118       C  0.58237955  0.14211961  0.69825236    -0.30500
H2119       H  0.55475814  0.13031475  0.67607363     0.13700
H2120       H  0.59332417  0.13086735  0.70916317     0.14300
C2121       C  0.57455771  0.23388799  0.63181284    -0.15300
C2122       C  0.54198443  0.23392614  0.61927267    -0.30500
H2123       H  0.62186763  0.23090966  0.63116144     0.13700
H2124       H  0.49444585  0.23420681  0.61994520     0.14300
C2125       C  0.02027201  0.24890266  0.75658687    -0.15300
C2126       C  0.98862407  0.26345716  0.74538168    -0.30500
H2127       H  0.06077477  0.23432597  0.75426325     0.13700
H2128       H  0.94851875  0.27845505  0.74769865     0.14300
C2129       C  0.08697988  0.14294731  0.69607697    -0.15300
C2130       C  0.06641770  0.12063022  0.68522487    -0.30500
H2131       H  0.09986546  0.13138549  0.70679962     0.13700
H2132       H  0.05448486  0.13134305  0.67429529     0.14300
C2133       C  0.79767940  0.25466219  0.69317836    -0.15300
C2134       C  0.75427435  0.25596526  0.68290397    -0.30500
H2135       H  0.78752166  0.25136294  0.70500573     0.13700
H2136       H  0.76433107  0.25846086  0.67103506     0.14300
C2137       C  0.25402108  0.26091350  0.68267197    -0.15300
C2138       C  0.29786743  0.26158378  0.69281055    -0.30500
H2139       H  0.26340848  0.26198067  0.67072258     0.13700
H2140       H  0.28838922  0.26031629  0.70475094     0.14300
C2141       C  0.07387474  0.25462614  0.63217685    -0.15300
C2142       C  0.04145147  0.26369566  0.62021300    -0.30500
H2143       H  0.11858207  0.24506495  0.63065799     0.13700
H2144       H  0.99516386  0.26996643  0.62144348     0.14300
C2145       C  0.90035785  0.49402916  0.74126261    -0.15300
C2146       C  0.87129907  0.51071198  0.75257742    -0.30500
H2147       H  0.93453926  0.47424802  0.74364584     0.13700
H2148       H  0.83649930  0.53005024  0.75015488     0.14300
C2149       C  0.82592048  0.62637033  0.68718375    -0.15300
C2150       C  0.84287740  0.64747796  0.69878161    -0.30500
H2151       H  0.82083586  0.63800166  0.67607480     0.13700
H2152       H  0.84880799  0.63516200  0.70974853     0.14300
C2153       C  0.93537128  0.39402048  0.67509012    -0.15300
C2154       C  0.94994217  0.37214491  0.68646465    -0.30500
H2155       H  0.93054208  0.38260009  0.66383342     0.13700
H2156       H  0.95738114  0.38360007  0.69762278     0.14300
C2157       C  0.40107714  0.50818948  0.74481842    -0.15300
C2158       C  0.36824315  0.52304448  0.75588249    -0.30500
H2159       H  0.43830030  0.49093361  0.74753781     0.13700
H2160       H  0.33139040  0.54069592  0.75328742     0.14300
C2161       C  0.33305023  0.64792899  0.68637775    -0.15300
C2162       C  0.30546703  0.62607421  0.69607762    -0.30500
H2163       H  0.34920994  0.63713006  0.67576402     0.13700
H2164       H  0.28827709  0.63785911  0.70642395     0.14300
C2165       C  0.59662966  0.51496596  0.69098617    -0.15300
C2166       C  0.63823488  0.51315961  0.68026115    -0.30500
H2167       H  0.60880816  0.52052358  0.70260117     0.13700
H2168       H  0.62607802  0.50739457  0.66866187     0.14300
C2169       C  0.13954945  0.50784016  0.68130185    -0.15300
C2170       C  0.09440242  0.50788499  0.69091717    -0.30500
H2171       H  0.13147738  0.50664378  0.66926213     0.13700
H2172       H  0.10247487  0.50911026  0.70295686     0.14300
C2173       C  0.45982458  0.37136177  0.67558561    -0.15300
C2174       C  0.44035932  0.39483181  0.68617149    -0.30500
H2175       H  0.46912140  0.38158785  0.66442942     0.13700
H2176       H  0.42970378  0.38471773  0.69726203     0.14300
C2177       C  0.81559576  0.60843366  0.56761649    -0.15300
C2178       C  0.78095558  0.62906368  0.55901572    -0.30500
H2179       H  0.83783809  0.61997843  0.57736970     0.13700
H2180       H  0.75794318  0.61606871  0.54966201     0.14300
C2181       C  0.66724802  0.35906820  0.57266658    -0.15300
C2182       C  0.69247233  0.37994304  0.56212852    -0.30500
H2183       H  0.65348397  0.37145157  0.58322497     0.13700
H2184       H  0.70777620  0.36781599  0.55166858     0.14300
C2185       C  0.81173402  0.48049143  0.62010241    -0.15300
C2186       C  0.82195763  0.51139783  0.62778226    -0.30500
H2187       H  0.81621040  0.45413052  0.62545742     0.13700
H2188       H  0.81184293  0.53766307  0.62284191     0.14300
C2189       C  0.32643440  0.61608858  0.55272994    -0.15300
C2190       C  0.30437633  0.63825431  0.56345368    -0.30500
H2191       H  0.33724918  0.62736130  0.54183824     0.13700
H2192       H  0.29448544  0.62754478  0.57449028     0.14300
C2193       C  0.50271401  0.50037537  0.56688470    -0.15300
C2194       C  0.54688393  0.50262146  0.55693946    -0.30500
H2195       H  0.51239453  0.49638670  0.57872087     0.13700
H2196       H  0.53744357  0.50706076  0.54512130     0.14300
C2197       C  0.00145305  0.49853370  0.57136238    -0.15300
C2198       C  0.04401243  0.50558109  0.56139881    -0.30500
H2199       H  0.01244763  0.48926168  0.58258622     0.13700
H2200       H  0.03268902  0.51287652  0.54994092     0.14300
C2201       C  0.17583922  0.36675412  0.56442228    -0.15300
C2202       C  0.20013892  0.38900302  0.57485160    -0.30500
H2203       H  0.16276566  0.37762347  0.55360297     0.13700
H2204       H  0.21148704  0.37793448  0.58576642     0.14300
C2205       C  0.30933847  0.51189325  0.63208723    -0.15300
C2206       C  0.33801974  0.51510296  0.61907100    -0.30500
H2207       H  0.26176943  0.51067360  0.63212076     0.13700
H2208       H  0.38503275  0.51975520  0.61909588     0.14300
C2209       C  0.96285468  0.99245692  0.50482256    -0.15300
C2210       C  0.99312634  0.01079427  0.49412973    -0.30500
H2211       H  0.92980386  0.97255259  0.50160448     0.13700
H2212       H  0.02631406  0.03058014  0.49738457     0.14300
C2213       C  0.49525467  0.02071642  0.49474093    -0.15300
C2214       C  0.46084590  0.00630506  0.50547572    -0.30500
H2215       H  0.53091231  0.03903340  0.49772353     0.13700
H2216       H  0.42530780  0.98791637  0.50246380     0.14300
C2217       C  0.69377692  0.00001684  0.44157603    -0.15300
C2218       C  0.73661008  0.99788897  0.43118007    -0.30500
H2219       H  0.70462926  0.99956037  0.45347316     0.13700
H2220       H  0.72589825  0.99822537  0.41927564     0.14300
C2221       C  0.19381543  0.99829658  0.44277924    -0.15300
C2222       C  0.23743507  0.00132136  0.43279984    -0.30500
H2223       H  0.20372911  0.99420529  0.45459687     0.13700
H2224       H  0.22742008  0.00665417  0.42107385     0.14300
C2225       C  0.88189848  0.98010314  0.24456963    -0.15300
C2226       C  0.84823704  0.99501593  0.25541907    -0.30500
H2227       H  0.91898136  0.96281015  0.24735286     0.13700
H2228       H  0.81088035  0.01195268  0.25248051     0.14300
C2229       C  0.92561049  0.00752754  0.36923043    -0.15300
C2230       C  0.92031369  0.98119267  0.37955464    -0.30500
H2231       H  0.94531837  0.03346728  0.37236913     0.13700
H2232       H  0.89595126  0.95656710  0.37679862     0.14300
C2233       C  0.34569990  0.01225853  0.25713398    -0.15300
C2234       C  0.37798738  0.99597237  0.24627786    -0.30500
H2235       H  0.31068463  0.03105094  0.25425226     0.13700
H2236       H  0.41321178  0.97737534  0.24921907     0.14300
C2237       C  0.60731542  0.99922331  0.31822269    -0.15300
C2238       C  0.64987069  0.99246226  0.30814964    -0.30500
H2239       H  0.61853526  0.00910973  0.32942295     0.13700
H2240       H  0.63876600  0.98325807  0.29684848     0.14300
C2241       C  0.15078711  0.99860840  0.30953649    -0.15300
C2242       C  0.10664672  0.00056283  0.31951567    -0.30500
H2243       H  0.14134958  0.99521463  0.29762471     0.13700
H2244       H  0.11591300  0.00393991  0.33143510     0.14300
C2245       C  0.40623860  0.00702277  0.38234320    -0.15300
C2246       C  0.43703823  0.00841391  0.36973915    -0.30500
H2247       H  0.35892771  0.00357816  0.38195736     0.13700
H2248       H  0.48466863  0.00812494  0.37007432     0.14300
C2249       C  0.59832525  0.26197997  0.49478044    -0.15300
C2250       C  0.63188241  0.27232534  0.50658408    -0.30500
H2251       H  0.55404670  0.25205590  0.49650453     0.13700
H2252       H  0.67660684  0.28151426  0.50493567     0.14300
C2253       C  0.55687574  0.14177721  0.43955629    -0.15300
C2254       C  0.53695615  0.11870179  0.42886966    -0.30500
H2255       H  0.56608006  0.13204853  0.45081019     0.13700
H2256       H  0.52899909  0.12908545  0.41764554     0.14300
C2257       C  0.10458518  0.23842178  0.49528887    -0.15300
C2258       C  0.13707180  0.25081217  0.50694999    -0.30500
H2259       H  0.06104169  0.22738432  0.49707628     0.13700
H2260       H  0.17982176  0.26293132  0.50509946     0.14300
C2261       C  0.91442573  0.25658152  0.44193009    -0.15300
C2262       C  0.87060926  0.24596731  0.43267702    -0.30500
H2263       H  0.90438030  0.26930559  0.45269674     0.13700
H2264       H  0.88061526  0.23226861  0.42210936     0.14300
C2265       C  0.41403191  0.26403481  0.44073939    -0.15300
C2266       C  0.37095911  0.25363934  0.43117040    -0.30500
H2267       H  0.40323654  0.27482320  0.45180460     0.13700
H2268       H  0.38173414  0.24275468  0.42012079     0.14300
C2269       C  0.05936386  0.13452375  0.43724710    -0.15300
C2270       C  0.03516232  0.11230037  0.42686654    -0.30500
H2271       H  0.07125357  0.12387193  0.44819341     0.13700
H2272       H  0.02443993  0.12330570  0.41589606     0.14300
C2273       C  0.75145127  0.24249738  0.25482594    -0.15300
C2274       C  0.72058658  0.25568807  0.24301177    -0.30500
H2275       H  0.79251985  0.22819267  0.25295852     0.13700
H2276       H  0.67898581  0.26942316  0.24483745     0.14300
C2277       C  0.80301051  0.11425514  0.31068563    -0.15300
C2278       C  0.78321434  0.13817527  0.32101093    -0.30500
H2279       H  0.81508876  0.12366093  0.29958746     0.13700
H2280       H  0.77298616  0.12819777  0.33215528     0.14300
C2281       C  0.66019123  0.24629004  0.36901754    -0.15300
C2282       C  0.69390207  0.24048576  0.38112765    -0.30500
H2283       H  0.61348017  0.25111216  0.37031738     0.13700
H2284       H  0.74123507  0.23880513  0.38002123     0.14300
C2285       C  0.25153479  0.24523805  0.25324416    -0.15300
C2286       C  0.22038859  0.25766481  0.24136953    -0.30500
H2287       H  0.29467453  0.23336443  0.25156999     0.13700
H2288       H  0.17765152  0.27009494  0.24304284     0.14300
C2289       C  0.93855539  0.25988952  0.30737990    -0.15300
C2290       C  0.98237365  0.25469837  0.31732998    -0.30500
H2291       H  0.94829821  0.26569246  0.29570446     0.13700
H2292       H  0.97257716  0.24741159  0.32885370     0.14300
C2293       C  0.48195037  0.25096590  0.31713694    -0.15300
C2294       C  0.43891529  0.25982504  0.30740109    -0.30500
H2295       H  0.47105533  0.24013876  0.32809494     0.13700
H2296       H  0.44975719  0.26993208  0.29632293     0.14300
C2297       C  0.28992577  0.13832212  0.31178760    -0.15300
C2298       C  0.30824051  0.11627627  0.32281491    -0.30500
H2299       H  0.28062870  0.12715881  0.30067671     0.13700
H2300       H  0.31593445  0.12781546  0.33394828     0.14300
C2301       C  0.19227095  0.24791990  0.38073028    -0.15300
C2302       C  0.15897274  0.24947989  0.36820120    -0.30500
H2303       H  0.23966914  0.24894276  0.37975094     0.13700
H2304       H  0.11172985  0.25202265  0.36923155     0.14300
C2305       C  0.87739847  0.76039212  0.49770417    -0.15300
C2306       C  0.85979016  0.73215044  0.50583961    -0.30500
H2307       H  0.89237399  0.78494264  0.50348714     0.13700
H2308       H  0.84447014  0.70760059  0.50012797     0.14300
C2309       C  0.94008200  0.86205774  0.43585226    -0.15300
C2310       C  0.91328359  0.88342749  0.44606439    -0.30500
H2311       H  0.95160030  0.87240202  0.42486105     0.13700
H2312       H  0.89991280  0.87180031  0.45671073     0.14300
C2313       C  0.35523371  0.74392407  0.49529525    -0.15300
C2314       C  0.38359707  0.76085445  0.50679706    -0.30500
H2315       H  0.31830209  0.72612739  0.49748157     0.13700
H2316       H  0.42049999  0.77865716  0.50458551     0.14300
C2317       C  0.44959714  0.86883054  0.44865576    -0.15300
C2318       C  0.42424487  0.88997810  0.43829228    -0.30500
H2319       H  0.46272473  0.88087378  0.45936727     0.13700
H2320       H  0.41211622  0.87862280  0.42739323     0.14300
C2321       C  0.62558002  0.75334587  0.43478163    -0.15300
C2322       C  0.66827806  0.75327482  0.44534148    -0.30500
H2323       H  0.63648871  0.75075478  0.42294576     0.13700
H2324       H  0.65749399  0.75637846  0.45716659     0.14300
C2325       C  0.16852313  0.75244461  0.44335246    -0.15300
C2326       C  0.12451031  0.74611785  0.43362464    -0.30500
H2327       H  0.15901597  0.76021288  0.45490711     0.13700
H2328       H  0.13389855  0.73776460  0.42213112     0.14300
C2329       C  0.95388557  0.75395977  0.24700324    -0.15300
C2330       C  0.98684236  0.73873207  0.25776867    -0.30500
H2331       H  0.91988622  0.77362185  0.24980959     0.13700
H2332       H  0.02119533  0.71936257  0.25489133     0.14300
C2333       C  0.91293448  0.86067290  0.31733681    -0.15300
C2334       C  0.93925285  0.88207034  0.30724180    -0.30500
H2335       H  0.89760431  0.87183074  0.32796799     0.13700
H2336       H  0.95596511  0.86956062  0.29697907     0.14300
C2337       C  0.90496430  0.73074887  0.37096885    -0.15300
C2338       C  0.93998637  0.72973182  0.38306932    -0.30500
H2339       H  0.85793564  0.73382648  0.37238983     0.13700
H2340       H  0.98723435  0.73077165  0.38166087     0.14300
C2341       C  0.48622612  0.74440301  0.25328235    -0.15300
C2342       C  0.45396173  0.75941711  0.24199371    -0.30500
H2343       H  0.52530779  0.72874288  0.25061272     0.13700
H2344       H  0.41497681  0.77522276  0.24459733     0.14300
C2345       C  0.39778380  0.86427235  0.30354814    -0.15300
C2346       C  0.42152832  0.88619688  0.31409616    -0.30500
H2347       H  0.38407903  0.87595880  0.29291518     0.13700
H2348       H  0.43401386  0.87537812  0.32496948     0.14300
C2349       C  0.68486325  0.75254788  0.30676255    -0.15300
C2350       C  0.72627147  0.74736320  0.31742354    -0.30500
H2351       H  0.69712449  0.76021609  0.29544493     0.13700
H2352       H  0.71392362  0.73896830  0.32864639     0.14300
C2353       C  0.22824629  0.74766795  0.31934943    -0.15300
C2354       C  0.18278633  0.74872685  0.30969897    -0.30500
H2355       H  0.22055979  0.74450572  0.33130556     0.13700
H2356       H  0.19076747  0.75210742  0.29776181     0.14300
C2357       C  0.41309445  0.76032975  0.36886201    -0.15300
C2358       C  0.44629751  0.76615151  0.38124653    -0.30500
H2359       H  0.36585663  0.75803654  0.36995468     0.13700
H2360       H  0.49290547  0.77133469  0.38011254     0.14300
C2361       C  0.77650249  0.51053318  0.49440406    -0.15300
C2362       C  0.74515562  0.49530914  0.50554253    -0.30500
H2363       H  0.81475808  0.52711007  0.49693812     0.13700
H2364       H  0.70672666  0.47897628  0.50288509     0.14300
C2365       C  0.66652179  0.38517588  0.44756651    -0.15300
C2366       C  0.68839269  0.36284787  0.43689861    -0.30500
H2367       H  0.65305067  0.37391437  0.45826431     0.13700
H2368       H  0.70102953  0.37337685  0.42601905     0.14300
C2369       C  0.80198632  0.60974581  0.42851720    -0.15300
C2370       C  0.82078002  0.63144758  0.43989984    -0.30500
H2371       H  0.79263614  0.62160250  0.41762468     0.13700
H2372       H  0.83214527  0.61985635  0.45071160     0.14300
C2373       C  0.25777793  0.50305512  0.49593647    -0.15300
C2374       C  0.22910671  0.48571605  0.50706473    -0.30500
H2375       H  0.29281797  0.52202285  0.49870543     0.13700
H2376       H  0.19380605  0.46683734  0.50444830     0.14300
C2377       C  0.18497385  0.38300424  0.43599168    -0.15300
C2378       C  0.18337547  0.35884849  0.44720765    -0.30500
H2379       H  0.19326918  0.37379948  0.42455577     0.13700
H2380       H  0.17600114  0.36885663  0.45858867     0.14300
C2381       C  0.00360644  0.49689247  0.43034841    -0.15300
C2382       C  0.96056249  0.49329015  0.44053020    -0.30500
H2383       H  0.99315556  0.50327503  0.41874627     0.13700
H2384       H  0.97140636  0.48771795  0.45218669     0.14300
C2385       C  0.45903804  0.50139229  0.44540605    -0.15300
C2386       C  0.50241764  0.50273589  0.43520175    -0.30500
H2387       H  0.46904150  0.49852165  0.45728315     0.13700
H2388       H  0.49209912  0.50515200  0.42332096     0.14300
C2389       C  0.30525638  0.61835898  0.43865928    -0.15300
C2390       C  0.33525385  0.63961002  0.42913219    -0.30500
H2391       H  0.28435078  0.63044504  0.44846310     0.13700
H2392       H  0.35445261  0.62738266  0.41912330     0.14300
C2393       C  0.58515711  0.51351713  0.25744161    -0.15300
C2394       C  0.61664735  0.49661622  0.24651683    -0.30500
H2395       H  0.54917037  0.53160604  0.25458734     0.13700
H2396       H  0.65233557  0.47838735  0.24947569     0.14300
C2397       C  0.66389088  0.36388564  0.31194503    -0.15300
C2398       C  0.68564250  0.38641551  0.30156174    -0.30500
H2399       H  0.65226523  0.37442546  0.32299264     0.13700
H2400       H  0.69843454  0.37540887  0.29066822     0.14300
C2401       C  0.55683634  0.61393384  0.32485228    -0.15300
C2402       C  0.53224032  0.63477359  0.31412722    -0.30500
H2403       H  0.56885994  0.62653255  0.33553225     0.13700
H2404       H  0.51960164  0.62246065  0.30344389     0.14300
C2405       C  0.69339761  0.48297296  0.36907159    -0.15300
C2406       C  0.66594622  0.48540694  0.38233693    -0.30500
H2407       H  0.74054061  0.47887213  0.36874054     0.13700
H2408       H  0.61838456  0.48645921  0.38267553     0.14300
C2409       C  0.09331385  0.50410587  0.25840661    -0.15300
C2410       C  0.12374197  0.48820695  0.24705589    -0.30500
H2411       H  0.05455799  0.52024921  0.25595943     0.13700
H2412       H  0.16236720  0.47195214  0.24950366     0.14300
C2413       C  0.16670836  0.36351539  0.30413306    -0.15300
C2414       C  0.17726760  0.38566179  0.31594745    -0.30500
H2415       H  0.16513735  0.37520365  0.29295854     0.13700
H2416       H  0.17887849  0.37482289  0.32725345     0.14300
C2417       C  0.89964259  0.49857503  0.30694663    -0.15300
C2418       C  0.85551608  0.50318181  0.31677638    -0.30500
H2419       H  0.89041994  0.49246106  0.29520023     0.13700
H2420       H  0.86515729  0.50735075  0.32864097     0.14300
C2421       C  0.35400153  0.50491689  0.32299083    -0.15300
C2422       C  0.39629477  0.49947596  0.31260919    -0.30500
H2423       H  0.36547840  0.51350823  0.33434303     0.13700
H2424       H  0.38417285  0.49201302  0.30116382     0.14300
C2425       C  0.03293619  0.62877626  0.31509216    -0.15300
C2426       C  0.06232150  0.60780455  0.32487521    -0.30500
H2427       H  0.01365951  0.61663782  0.30504078     0.13700
H2428       H  0.08003935  0.62006483  0.33509093     0.14300
C2429       C  0.15581180  0.48854448  0.37478606    -0.15300
C2430       C  0.20351429  0.50579573  0.38010416    -0.30500
H2431       H  0.12542276  0.47594829  0.38252997     0.13700
H2432       H  0.23138691  0.52073257  0.37244559     0.14300
loop_ 
_geom_bond_atom_site_label_1 
_geom_bond_atom_site_label_2 
_geom_bond_distance 
_geom_bond_site_symmetry_2 
_ccdc_geom_bond_type 
O1           Ni7   1.912       .  S
O1           C22   1.266       .  A
O2          Ni25   1.916       .  S
O2           C11   1.272       .  A
O3           Ni7   1.915       .  S
O3          Ni25   1.921       .  S
O3          Ni19   1.944       .  S
O3           H26   0.966       .  S
C4           O21   1.274       .  A
C4           O13   1.273       .  A
C4         C2421   1.482       .  S
O5          Ni24   1.926       .  S
O5           C11   1.270       .  A
O6          Ni24   1.903       .  S
O6            C8   1.270       .  A
Ni7          O10   1.921   1_455  S
Ni7          O12   1.893       .  S
C8           O18   1.273       .  A
C8         C2414   1.486       .  S
O9          Ni25   1.908       .  S
O9           C15   1.264   1_455  A
O10          C15   1.267       .  A
C11        C2409   1.481       .  S
O12          C14   1.271       .  A
O13         Ni24   1.924       .  S
C14          O20   1.287       .  A
C14        C2426   1.472       .  S
C15        C2417   1.475       .  S
H16          O17   0.965       .  S
O17         Ni25   1.902       .  S
O17         Ni19   1.907       .  S
O17         Ni24   1.915       .  S
O18         Ni19   1.945       .  S
Ni19         O23   1.911       .  S
Ni19         O21   1.920       .  S
O20         Ni25   1.968       .  S
C22          O23   1.269       .  A
C22        C2429   1.470       .  S
O27         Ni33   1.941       .  S
O27          C48   1.276       .  A
O28         Ni51   1.933       .  S
O28          C37   1.275       .  A
O29         Ni33   1.905       .  S
O29         Ni51   1.913       .  S
O29         Ni45   1.912       .  S
O29          H52   0.966       .  S
C30          O47   1.274       .  A
C30          O39   1.274       .  A
C30        C2418   1.470       .  S
O31         Ni50   1.904       .  S
O31          C37   1.264       .  A
O32         Ni50   1.902       .  S
O32          C34   1.264       .  A
Ni33         O36   1.934       .  S
Ni33         O38   1.906       .  S
C34          O44   1.272       .  A
C34        C2398   1.478       .  S
O35         Ni51   1.914       .  S
O35          C41   1.277       .  A
O36          C41   1.278       .  A
C37        C2393   1.478       .  S
O38          C40   1.270       .  A
O39         Ni50   1.916       .  S
C40          O46   1.280       .  A
C40        C2401   1.485       .  S
C41        C2422   1.478       .  S
H42          O43   0.966       .  S
O43         Ni51   1.920       .  S
O43         Ni45   1.898       .  S
O43         Ni50   1.915       .  S
O44         Ni45   1.932       .  S
Ni45         O49   1.896       .  S
Ni45         O47   1.918       .  S
O46         Ni51   1.956       .  S
C48          O49   1.265       .  A
C48        C2405   1.475       .  S
O53         Ni59   1.928       .  S
O53          C74   1.271       .  A
O54         Ni77   1.909       .  S
O54          C63   1.270       .  A
O55         Ni59   1.906       .  S
O55         Ni77   1.908       .  S
O55         Ni71   1.909       .  S
O55          H78   0.966       .  S
C56          O73   1.273       .  A
C56          O65   1.275       .  A
C56        C2381   1.475       .  S
O57         Ni76   1.930       .  S
O57          C63   1.271       .  A
O58         Ni76   1.910       .  S
O58          C60   1.271       .  A
Ni59         O62   1.905       .  S
Ni59         O64   1.912       .  S
C60          O70   1.270       .  A
C60        C2377   1.488       .  S
O61         Ni77   1.925       .  S
O61          C67   1.277       .  A
O62          C67   1.274       .  A
C63        C2373   1.475       .  S
O64          C66   1.272       .  A
O65         Ni76   1.920       .  S
C66          O72   1.274       .  A
C66        C2389   1.488       .  S
C67        C2385   1.473       .  S
H68          O69   0.966       .  S
O69         Ni77   1.910       .  S
O69         Ni71   1.912       .  S
O69         Ni76   1.915       .  S
O70         Ni71   1.934       .  S
Ni71         O75   1.905       .  S
Ni71         O73   1.912       .  S
O72         Ni77   1.937       .  S
C74          O75   1.267       .  A
C74        C2430   1.476       .  S
O79         Ni85   1.941       .  S
O79         C100   1.275       .  A
O80        Ni103   1.920       .  S
O80          C89   1.270       .  A
O81         Ni85   1.909       .  S
O81        Ni103   1.915       .  S
O81         Ni97   1.914       .  S
O81         H104   0.966       .  S
C82          O99   1.274       .  A
C82          O91   1.273       .  A
C82        C2386   1.467       .  S
O83        Ni102   1.909       .  S
O83          C89   1.265       .  A
O84        Ni102   1.898       .  S
O84          C86   1.265       .  A
Ni85         O88   1.930       .  S
Ni85         O90   1.903       .  S
C86          O96   1.270       .  A
C86        C2365   1.469       .  S
O87        Ni103   1.904       .  S
O87          C93   1.272       .  A
O88          C93   1.276       .  A
C89        C2361   1.474       .  S
O90          C92   1.270       .  A
O91        Ni102   1.912       .  S
C92          O98   1.276       .  A
C92        C2369   1.474       .  S
C93        C2382   1.471       .  S
H94          O95   0.966       .  S
O95        Ni103   1.912       .  S
O95         Ni97   1.900       .  S
O95        Ni102   1.914       .  S
O96         Ni97   1.925       .  S
Ni97        O101   1.894       .  S
Ni97         O99   1.914       .  S
O98        Ni103   1.941       .  S
C100        O101   1.264       .  A
C100       C2406   1.473       .  S
O105       Ni111   1.942       .  S
O105        C126   1.276       .  A
O106       Ni129   1.935       .  S
O106        C115   1.277       .  A
O107       Ni111   1.910       .  S
O107       Ni129   1.914       .  S
O107       Ni123   1.901       .  S
O107        H130   0.966       .  S
C108        O125   1.270       .  A
C108        O117   1.272       .  A
C108       C2353   1.477       .  S
O109       Ni128   1.920       .  S
O109        C115   1.266       .  A
O110       Ni128   1.898       .  S
O110        C112   1.266       .  A
Ni111       O114   1.911       .  S
Ni111       O116   1.917       .  S
C112        O122   1.275       .  A
C112       C2345   1.476       .  S
O113       Ni129   1.923       .  S
O113        C119   1.279       .  A
O114        C119   1.274       .  A
C115       C2341   1.488       .  S
O116        C118   1.275       .  A
O117       Ni128   1.914       .  S
C118        O124   1.277       .  A
C118       C2402   1.491       .  S
C119       C2349   1.474       .  S
H120        O121   0.966       .  S
O121       Ni129   1.921       .  S
O121       Ni123   1.921       .  S
O121       Ni128   1.923       .  S
O122       Ni123   1.939       .  S
Ni123       O127   1.907       .  S
Ni123       O125   1.914       .  S
O124       Ni129   1.945       .  S
C126        O127   1.268       .  A
C126       C2357   1.480       .  S
O131       Ni137   1.937   1_655  S
O131        C152   1.275       .  A
O132       Ni155   1.893   1_455  S
O132        C141   1.263   1_455  A
O133       Ni137   1.913   1_655  S
O133       Ni155   1.908       .  S
O133       Ni149   1.920       .  S
O133        H156   0.966   1_655  S
C134        O151   1.274       .  A
C134        O143   1.274       .  A
C134       C2350   1.468       .  S
O135       Ni154   1.916       .  S
O135        C141   1.268       .  A
O136       Ni154   1.901       .  S
O136        C138   1.268       .  A
Ni137       O140   1.926       .  S
Ni137       O142   1.912       .  S
C138        O148   1.271       .  A
C138       C2333   1.483       .  S
O139       Ni155   1.909   1_455  S
O139        C145   1.271       .  A
O140        C145   1.276       .  A
C141       C2330   1.459       .  S
O142        C144   1.272       .  A
O143       Ni154   1.922       .  S
C144        O150   1.271       .  A
C144       C2425   1.483       .  S
C145       C2354   1.474       .  S
H146        O147   0.966       .  S
O147       Ni155   1.903       .  S
O147       Ni149   1.898       .  S
O147       Ni154   1.910       .  S
O148       Ni149   1.942       .  S
Ni149       O153   1.895       .  S
Ni149       O151   1.908       .  S
O150       Ni155   1.928   1_455  S
C152        O153   1.265       .  A
C152       C2337   1.471       .  S
O157       Ni163   1.930       .  S
O157        C178   1.273       .  A
O158       Ni181   1.920       .  S
O158        C167   1.270       .  A
O159       Ni163   1.909       .  S
O159       Ni181   1.918       .  S
O159       Ni175   1.918       .  S
O159        H182   0.966       .  S
C160        O177   1.276       .  A
C160        O169   1.271       .  A
C160       C2321   1.470       .  S
O161       Ni180   1.913       .  S
O161        C167   1.264       .  A
O162       Ni180   1.895       .  S
O162        C164   1.265       .  A
Ni163       O166   1.931       .  S
Ni163       O168   1.898       .  S
C164        O174   1.275       .  A
C164       C2317   1.474       .  S
O165       Ni181   1.897       .  S
O165        C171   1.268       .  A
O166        C171   1.276       .  A
C167       C2313   1.476       .  S
O168        C170   1.267       .  A
O169       Ni180   1.904       .  S
C170        O176   1.279       .  A
C170       C2390   1.477       .  S
C171       C2325   1.470       .  S
H172        O173   0.966       .  S
O173       Ni181   1.906       .  S
O173       Ni175   1.912       .  S
O173       Ni180   1.918       .  S
O174       Ni175   1.938       .  S
Ni175       O179   1.921       .  S
Ni175       O177   1.923       .  S
O176       Ni181   1.956       .  S
C178        O179   1.273       .  A
C178       C2358   1.487       .  S
O183       Ni189   1.935       .  S
O183        C204   1.271       .  A
O184       Ni207   1.942       .  S
O184        C193   1.279       .  A
O185       Ni189   1.905       .  S
O185       Ni207   1.923       .  S
O185       Ni201   1.913       .  S
O185        H208   0.966       .  S
C186        O203   1.271       .  A
C186        O195   1.277       .  A
C186       C2326   1.471       .  S
O187       Ni206   1.912       .  S
O187        C193   1.262       .  A
O188       Ni206   1.894       .  S
O188        C190   1.264       .  A
Ni189       O192   1.906       .  S
Ni189       O194   1.898       .  S
C190        O200   1.265       .  A
C190       C2309   1.471       .  S
O191       Ni207   1.926       .  S
O191        C197   1.278       .  A
O192        C197   1.273       .  A
C193       C2305   1.479       .  S
O194        C196   1.271       .  A
O195       Ni206   1.925   1_455  S
C196        O202   1.280       .  A
C196       C2370   1.486       .  S
C197       C2322   1.473       .  S
H198        O199   0.966       .  S
O199       Ni207   1.910       .  S
O199       Ni201   1.905       .  S
O199       Ni206   1.911       .  S
O200       Ni201   1.926       .  S
Ni201       O205   1.892       .  S
Ni201       O203   1.903   1_655  S
O202       Ni207   1.947       .  S
C204        O205   1.261       .  A
C204       C2338   1.470       .  S
O209       Ni215   1.943       .  S
O209        C230   1.275       .  A
O210       Ni233   1.914       .  S
O210        C219   1.270       .  A
O211       Ni215   1.915       .  S
O211       Ni233   1.909       .  S
O211       Ni227   1.898       .  S
O211        H234   0.966       .  S
C212        O229   1.264       .  A
C212        O221   1.266       .  A
C212       C2290   1.471   1_455  S
O213       Ni232   1.908       .  S
O213        C219   1.266       .  A
O214       Ni232   1.884       .  S
O214        C216   1.268       .  A
Ni215       O218   1.923       .  S
Ni215       O220   1.912       .  S
C216        O226   1.285       .  A
C216       C2413   1.475       .  S
O217       Ni233   1.917       .  S
O217        C223   1.275       .  A
O218        C223   1.275       .  A
C219       C2285   1.475       .  S
O220        C222   1.274       .  A
O221       Ni232   1.918       .  S
C222        O228   1.273       .  A
C222       C2297   1.487       .  S
C223       C2294   1.477       .  S
H224        O225   0.966       .  S
O225       Ni233   1.935       .  S
O225       Ni227   1.922       .  S
O225       Ni232   1.927       .  S
O226       Ni227   1.968       .  S
Ni227       O231   1.912       .  S
Ni227       O229   1.902       .  S
O228       Ni233   1.936       .  S
C230        O231   1.270       .  A
C230       C2302   1.487       .  S
O235       Ni241   1.920       .  S
O235        C256   1.268       .  A
O236       Ni259   1.915       .  S
O236        C245   1.274       .  A
O237       Ni241   1.913       .  S
O237       Ni259   1.920       .  S
O237       Ni253   1.920       .  S
O237        H260   0.966       .  S
C238        O255   1.270       .  A
C238        O247   1.275       .  A
C238       C2293   1.475       .  S
O239       Ni258   1.923       .  S
O239        C245   1.271       .  A
O240       Ni258   1.910       .  S
O240        C242   1.269       .  A
Ni241       O244   1.910       .  S
Ni241       O246   1.889       .  S
C242        O252   1.271       .  A
C242       C2397   1.479       .  S
O243       Ni259   1.917       .  S
O243        C249   1.272       .  A
O244        C249   1.270       .  A
C245       C2273   1.478       .  S
O246        C248   1.266       .  A
O247       Ni258   1.935       .  S
C248        O254   1.284       .  A
C248       C2278   1.480       .  S
C249       C2289   1.473       .  S
H250        O251   0.966       .  S
O251       Ni259   1.912       .  S
O251       Ni253   1.905       .  S
O251       Ni258   1.920       .  S
O252       Ni253   1.938       .  S
Ni253       O257   1.898       .  S
Ni253       O255   1.903       .  S
O254       Ni259   1.965       .  S
C256        O257   1.262       .  A
C256       C2281   1.469       .  S
O261       Ni267   1.949       .  S
O261        C282   1.279       .  A
O262       Ni285   1.906       .  S
O262        C271   1.266       .  A
O263       Ni267   1.914       .  S
O263       Ni285   1.899       .  S
O263       Ni279   1.897       .  S
O263        H286   0.966       .  S
C264        O281   1.264       .  A
C264        O273   1.264       .  A
C264       C2266   1.475       .  S
O265       Ni284   1.897       .  S
O265        C271   1.264       .  A
O266       Ni284   1.884       .  S
O266        C268   1.268       .  A
Ni267       O270   1.931   1_455  S
Ni267       O272   1.920       .  S
C268        O278   1.288       .  A
C268       C2378   1.478       .  S
O269       Ni285   1.915       .  S
O269        C275   1.275   1_455  A
O270        C275   1.277       .  A
C271       C2257   1.464       .  S
O272        C274   1.275       .  A
O273       Ni284   1.916       .  S
C274        O280   1.271       .  A
C274       C2269   1.488       .  S
C275       C2261   1.479       .  S
H276        O277   0.966       .  S
O277       Ni285   1.942       .  S
O277       Ni279   1.918       .  S
O277       Ni284   1.925       .  S
O278       Ni279   1.976       .  S
Ni279       O283   1.908       .  S
Ni279       O281   1.910       .  S
O280       Ni285   1.934       .  S
C282        O283   1.271       .  A
C282       C2301   1.485       .  S
O287       Ni293   1.932       .  S
O287        C308   1.272       .  A
O288       Ni311   1.900       .  S
O288        C297   1.268       .  A
O289       Ni293   1.917       .  S
O289       Ni311   1.907       .  S
O289       Ni305   1.910       .  S
O289        H312   0.966       .  S
C290        O307   1.264       .  A
C290        O299   1.270       .  A
C290       C2262   1.477       .  S
O291       Ni310   1.908       .  S
O291        C297   1.267       .  A
O292       Ni310   1.892       .  S
O292        C294   1.268       .  A
Ni293       O296   1.918       .  S
Ni293       O298   1.905       .  S
C294        O304   1.276       .  A
C294       C2366   1.476       .  S
O295       Ni311   1.916       .  S
O295        C301   1.272       .  A
O296        C301   1.271       .  A
C297       C2249   1.464       .  S
O298        C300   1.274       .  A
O299       Ni310   1.932       .  S
C300        O306   1.276       .  A
C300       C2253   1.488       .  S
C301       C2265   1.476       .  S
H302        O303   0.966       .  S
O303       Ni311   1.930       .  S
O303       Ni305   1.906       .  S
O303       Ni310   1.926       .  S
O304       Ni305   1.952       .  S
Ni305       O309   1.885       .  S
Ni305       O307   1.904       .  S
O306       Ni311   1.945       .  S
C308        O309   1.261       .  A
C308       C2282   1.463       .  S
O313       Ni319   1.924       .  S
O313        C334   1.269       .  A
O314       Ni337   1.914       .  S
O314        C323   1.272       .  A
O315       Ni319   1.912   1_565  S
O315       Ni337   1.916   1_565  S
O315       Ni331   1.919       .  S
O315        H338   0.966       .  S
C316        O333   1.269   1_565  A
C316        O325   1.277       .  A
C316       C2237   1.471       .  S
O317       Ni336   1.914       .  S
O317        C323   1.269   1_565  A
O318       Ni336   1.906       .  S
O318        C320   1.266       .  A
Ni319       O322   1.915       .  S
Ni319       O324   1.892       .  S
C320        O330   1.266       .  A
C320       C2346   1.481       .  S
O321       Ni337   1.913       .  S
O321        C327   1.273       .  A
O322        C327   1.273       .  A
C323       C2233   1.472       .  S
O324        C326   1.266       .  A
O325       Ni336   1.936       .  S
C326        O332   1.281       .  A
C326       C2298   1.475       .  S
C327       C2241   1.471   1_545  S
H328        O329   0.966       .  S
O329       Ni337   1.906       .  S
O329       Ni331   1.891   1_545  S
O329       Ni336   1.912   1_545  S
O330       Ni331   1.934       .  S
Ni331       O335   1.870       .  S
Ni331       O333   1.898   1_565  S
O332       Ni337   1.953       .  S
C334        O335   1.254   1_545  A
C334       C2246   1.450       .  S
O339       Ni345   1.944       .  S
O339        C360   1.277       .  A
O340       Ni363   1.902       .  S
O340        C349   1.266   1_545  A
O341       Ni345   1.896   1_565  S
O341       Ni363   1.896   1_565  S
O341       Ni357   1.897       .  S
O341        H364   0.966       .  S
C342        O359   1.275       .  A
C342        O351   1.272       .  A
C342       C2242   1.473   1_565  S
O343       Ni362   1.916       .  S
O343        C349   1.266       .  A
O344       Ni362   1.896       .  S
O344        C346   1.267       .  A
Ni345       O348   1.925       .  S
Ni345       O350   1.918       .  S
C346        O356   1.276       .  A
C346       C2334   1.474       .  S
O347       Ni363   1.917   1_565  S
O347        C353   1.278       .  A
O348        C353   1.281   1_545  A
C349       C2226   1.463       .  S
O350        C352   1.273       .  A
O351       Ni362   1.907   1_455  S
C352        O358   1.269       .  A
C352       C2277   1.493       .  S
C353       C2238   1.475       .  S
H354        O355   0.966       .  S
O355       Ni363   1.918       .  S
O355       Ni357   1.911   1_545  S
O355       Ni362   1.908   1_545  S
O356       Ni357   1.943       .  S
Ni357       O361   1.912       .  S
Ni357       O359   1.923   1_655  S
O358       Ni363   1.932       .  S
C360        O361   1.271   1_545  A
C360       C2229   1.476       .  S
O365       Ni371   1.925       .  S
O365        C386   1.269       .  A
O366       Ni389   1.916       .  S
O366        C375   1.273       .  A
O367       Ni371   1.907   1_565  S
O367       Ni389   1.914   1_565  S
O367       Ni383   1.912   1_565  S
O367        H390   0.966       .  S
C368        O385   1.267   1_565  A
C368        O377   1.278       .  A
C368       C2222   1.470   1_565  S
O369       Ni388   1.912       .  S
O369        C375   1.268   1_565  A
O370       Ni388   1.909       .  S
O370        C372   1.266       .  A
Ni371       O374   1.911       .  S
Ni371       O376   1.892       .  S
C372        O382   1.263       .  A
C372       C2318   1.477       .  S
O373       Ni389   1.922       .  S
O373        C379   1.277       .  A
O374        C379   1.273       .  A
C375       C2213   1.471       .  S
O376        C378   1.266       .  A
O377       Ni388   1.940       .  S
C378        O384   1.279       .  A
C378       C2254   1.474       .  S
C379       C2217   1.472       .  S
H380        O381   0.966       .  S
O381       Ni389   1.911       .  S
O381       Ni383   1.892       .  S
O381       Ni388   1.913   1_545  S
O382       Ni383   1.925   1_565  S
Ni383       O387   1.868   1_545  S
Ni383       O385   1.891       .  S
O384       Ni389   1.951       .  S
C386        O387   1.252   1_545  A
C386       C2245   1.450       .  S
O391       Ni397   1.941   1_655  S
O391        C412   1.274   1_545  A
O392       Ni415   1.937       .  S
O392        C401   1.277   1_455  A
O393       Ni397   1.896   1_565  S
O393       Ni415   1.916   1_565  S
O393       Ni409   1.911   1_455  S
O393        H416   0.966       .  S
C394        O411   1.279       .  A
C394        O403   1.273       .  A
C394       C2218   1.474       .  S
O395       Ni414   1.908       .  S
O395        C401   1.263   1_565  A
O396       Ni414   1.898       .  S
O396        C398   1.264       .  A
Ni397       O400   1.929       .  S
Ni397       O402   1.892       .  S
C398        O408   1.268       .  A
C398       C2310   1.468       .  S
O399       Ni415   1.910       .  S
O399        C405   1.274       .  A
O400        C405   1.280       .  A
C401       C2210   1.481       .  S
O402        C404   1.266       .  A
O403       Ni414   1.902       .  S
C404        O410   1.283       .  A
C404       C2270   1.479       .  S
C405       C2221   1.475   1_545  S
H406        O407   0.966       .  S
O407       Ni415   1.910   1_655  S
O407       Ni409   1.907   1_545  S
O407       Ni414   1.911   1_545  S
O408       Ni409   1.923       .  S
Ni409       O413   1.915       .  S
Ni409       O411   1.931       .  S
O410       Ni415   1.962       .  S
C412        O413   1.269       .  A
C412       C2230   1.483       .  S
O417       Ni423   1.913       .  S
O417        C438   1.267       .  A
O418       Ni441   1.898       .  S
O418        C427   1.265       .  A
O419       Ni423   1.915       .  S
O419       Ni441   1.903       .  S
O419       Ni435   1.917       .  S
O419        H442   0.966       .  S
C420        O437   1.275       .  A
C420        O429   1.277       .  A
C420       C2198   1.470       .  S
O421       Ni440   1.936       .  S
O421        C427   1.274       .  A
O422       Ni440   1.899       .  S
O422        C424   1.268       .  A
Ni423       O426   1.923       .  S
Ni423       O428   1.904       .  S
C424        O434   1.281       .  A
C424       C2202   1.481       .  S
O425       Ni441   1.916       .  S
O425        C431   1.273       .  A
O426        C431   1.275       .  A
C427       C2206   1.473       .  S
O428        C430   1.266       .  A
O429       Ni440   1.925       .  S
C430        O436   1.272       .  A
C430       C2189   1.480       .  S
C431       C2193   1.475       .  S
H432        O433   0.966       .  S
O433       Ni441   1.910       .  S
O433       Ni435   1.911       .  S
O433       Ni440   1.902       .  S
O434       Ni435   1.956       .  S
Ni435       O439   1.929       .  S
Ni435       O437   1.910       .  S
O436       Ni441   1.936       .  S
C438        O439   1.274       .  A
C438       C2374   1.482       .  S
O443       Ni449   1.923       .  S
O443        C464   1.271       .  A
O444       Ni467   1.888       .  S
O444        C453   1.261       .  A
O445       Ni449   1.915       .  S
O445       Ni467   1.909       .  S
O445       Ni461   1.917       .  S
O445        H468   0.967       .  S
C446        O463   1.277       .  A
C446        O455   1.276       .  A
C446       C2194   1.479       .  S
O447       Ni466   1.935       .  S
O447        C453   1.268       .  A
O448       Ni466   1.896       .  S
O448        C450   1.268       .  A
Ni449       O452   1.931       .  S
Ni449       O454   1.909       .  S
C450        O460   1.274       .  A
C450       C2182   1.484       .  S
O451       Ni467   1.901       .  S
O451        C457   1.268       .  A
O452        C457   1.274       .  A
C453       C2185   1.459       .  S
O454        C456   1.270       .  A
O455       Ni466   1.917       .  S
C456        O462   1.268       .  A
C456       C2177   1.477       .  S
C457       C2197   1.471   1_655  S
H458        O459   0.966       .  S
O459       Ni467   1.905       .  S
O459       Ni461   1.905       .  S
O459       Ni466   1.909       .  S
O460       Ni461   1.939       .  S
Ni461       O465   1.902       .  S
Ni461       O463   1.926       .  S
O462       Ni467   1.938       .  S
C464        O465   1.270       .  A
C464       C2362   1.470       .  S
O469       Ni475   1.916       .  S
O469        C490   1.267       .  A
O470       Ni493   1.888       .  S
O470        C479   1.265       .  A
O471       Ni475   1.910       .  S
O471       Ni493   1.900       .  S
O471       Ni487   1.918       .  S
O471        H494   0.966       .  S
C472        O489   1.279       .  A
C472        O481   1.279       .  A
C472       C2165   1.477       .  S
O473       Ni492   1.947       .  S
O473        C479   1.279       .  A
O474       Ni492   1.925       .  S
O474        C476   1.275       .  A
Ni475       O478   1.916       .  S
Ni475       O480   1.901       .  S
C476        O486   1.272       .  A
C476       C2174   1.491       .  S
O477       Ni493   1.912       .  S
O477        C483   1.270       .  A
O478        C483   1.274       .  A
C479       C2205   1.468       .  S
O480        C482   1.267       .  A
O481       Ni492   1.926       .  S
C482        O488   1.275       .  A
C482       C2162   1.477       .  S
C483       C2169   1.471       .  S
H484        O485   0.966       .  S
O485       Ni493   1.898       .  S
O485       Ni487   1.898       .  S
O485       Ni492   1.903       .  S
O486       Ni487   1.933       .  S
Ni487       O491   1.910       .  S
Ni487       O489   1.920       .  S
O488       Ni493   1.939       .  S
C490        O491   1.270       .  A
C490       C2157   1.467       .  S
O495       Ni501   1.921       .  S
O495        C516   1.270       .  A
O496       Ni519   1.898       .  S
O496        C505   1.262       .  A
O497       Ni501   1.909       .  S
O497       Ni519   1.901       .  S
O497       Ni513   1.903       .  S
O497        H520   0.966       .  S
C498        O515   1.272   1_455  A
C498        O507   1.277       .  A
C498       C2170   1.471       .  S
O499       Ni518   1.928       .  S
O499        C505   1.269       .  A
O500       Ni518   1.889       .  S
O500        C502   1.264       .  A
Ni501       O504   1.925       .  S
Ni501       O506   1.913       .  S
C502        O512   1.278       .  A
C502       C2153   1.468       .  S
O503       Ni519   1.915       .  S
O503        C509   1.277       .  A
O504        C509   1.277       .  A
C505       C2186   1.458       .  S
O506        C508   1.269       .  A
O507       Ni518   1.922   1_455  S
C508        O514   1.265       .  A
C508       C2149   1.481       .  S
C509       C2166   1.476       .  S
H510        O511   0.966       .  S
O511       Ni519   1.915       .  S
O511       Ni513   1.908       .  S
O511       Ni518   1.905       .  S
O512       Ni513   1.941       .  S
Ni513       O517   1.908       .  S
Ni513       O515   1.910       .  S
O514       Ni519   1.923       .  S
C516        O517   1.269       .  A
C516       C2145   1.471       .  S
O521       Ni527   1.911       .  S
O521        C542   1.266       .  A
O522       Ni545   1.894       .  S
O522        C531   1.266       .  A
O523       Ni527   1.909       .  S
O523       Ni545   1.905       .  S
O523       Ni539   1.914   1_455  S
O523        H546   0.966       .  S
C524        O541   1.276       .  A
C524        O533   1.277       .  A
C524       C2133   1.470       .  S
O525       Ni544   1.932   1_455  S
O525        C531   1.274       .  A
O526       Ni544   1.909       .  S
O526        C528   1.271       .  A
Ni527       O530   1.908       .  S
Ni527       O532   1.896       .  S
C528        O538   1.267       .  A
C528       C2154   1.478       .  S
O529       Ni545   1.913       .  S
O529        C535   1.271       .  A
O530        C535   1.272       .  A
C531       C2141   1.468       .  S
O532        C534   1.266       .  A
O533       Ni544   1.920       .  S
C534        O540   1.275       .  A
C534       C2129   1.475       .  S
C535       C2137   1.469       .  S
H536        O537   0.966       .  S
O537       Ni545   1.902   1_655  S
O537       Ni539   1.899       .  S
O537       Ni544   1.904       .  S
O538       Ni539   1.920       .  S
Ni539       O543   1.897       .  S
Ni539       O541   1.912       .  S
O540       Ni545   1.941       .  S
C542        O543   1.263   1_455  A
C542       C2126   1.459   1_455  S
O547       Ni553   1.907       .  S
O547        C568   1.266       .  A
O548       Ni571   1.891       .  S
O548        C557   1.262       .  A
O549       Ni553   1.911       .  S
O549       Ni571   1.899       .  S
O549       Ni565   1.908       .  S
O549        H572   0.966       .  S
C550        O567   1.271       .  A
C550        O559   1.275       .  A
C550       C2138   1.467       .  S
O551       Ni570   1.928       .  S
O551        C557   1.273       .  A
O552       Ni570   1.902       .  S
O552        C554   1.269       .  A
Ni553       O556   1.909       .  S
Ni553       O558   1.907       .  S
C554        O564   1.283       .  A
C554       C2173   1.486       .  S
O555       Ni571   1.920       .  S
O555        C561   1.275       .  A
O556        C561   1.274       .  A
C557       C2121   1.463       .  S
O558        C560   1.265       .  A
O559       Ni570   1.920       .  S
C560        O566   1.270       .  A
C560       C2118   1.481       .  S
C561       C2134   1.471       .  S
H562        O563   0.966       .  S
O563       Ni571   1.914       .  S
O563       Ni565   1.913       .  S
O563       Ni570   1.905       .  S
O564       Ni565   1.961       .  S
Ni565       O569   1.924       .  S
Ni565       O567   1.903       .  S
O566       Ni571   1.931       .  S
C568        O569   1.273       .  A
C568       C2113   1.476       .  S
O573       Ni579   1.906       .  S
O573        C594   1.267       .  A
O574       Ni597   1.891       .  S
O574        C583   1.263       .  A
O575       Ni579   1.922       .  S
O575       Ni597   1.907       .  S
O575       Ni591   1.924       .  S
O575        H598   0.966       .  S
C576        O593   1.274       .  A
C576        O585   1.276       .  A
C576       C2109   1.478       .  S
O577       Ni596   1.934       .  S
O577        C583   1.273       .  A
O578       Ni596   1.914       .  S
O578        C580   1.273       .  A
Ni579       O582   1.926   1_455  S
Ni579       O584   1.895       .  S
C580        O590   1.274       .  A
C580       C2201   1.491       .  S
O581       Ni597   1.904   1_655  S
O581        C587   1.267       .  A
O582        C587   1.270       .  A
C583       C2142   1.462       .  S
O584        C586   1.268       .  A
O585       Ni596   1.924       .  S
C586        O592   1.277       .  A
C586       C2101   1.483       .  S
C587       C2106   1.473       .  S
H588        O589   0.966       .  S
O589       Ni597   1.908       .  S
O589       Ni591   1.902       .  S
O589       Ni596   1.915       .  S
O590       Ni591   1.939       .  S
Ni591       O595   1.899       .  S
Ni591       O593   1.916       .  S
O592       Ni597   1.956       .  S
C594        O595   1.267       .  A
C594       C2258   1.464       .  S
O599       Ni605   1.898       .  S
O599        C620   1.267       .  A
O600       Ni623   1.890       .  S
O600        C609   1.262       .  A
O601       Ni605   1.926       .  S
O601       Ni623   1.908       .  S
O601       Ni617   1.938       .  S
O601        H624   0.966       .  S
C602        O619   1.273       .  A
C602        O611   1.273       .  A
C602       C2105   1.477       .  S
O603       Ni622   1.924       .  S
O603        C609   1.271       .  A
O604       Ni622   1.898       .  S
O604        C606   1.267       .  A
Ni605       O608   1.928       .  S
Ni605       O610   1.888       .  S
C606        O616   1.276       .  A
C606       C2181   1.472       .  S
O607       Ni623   1.906       .  S
O607        C613   1.262       .  A
O608        C613   1.267       .  A
C609       C2122   1.464       .  S
O610        C612   1.267       .  A
O611       Ni622   1.924       .  S
C612        O618   1.281       .  A
C612       C2098   1.470       .  S
C613       C2110   1.478       .  S
H614        O615   0.966       .  S
O615       Ni623   1.904       .  S
O615       Ni617   1.905       .  S
O615       Ni622   1.909       .  S
O616       Ni617   1.949       .  S
Ni617       O621   1.909       .  S
Ni617       O619   1.915       .  S
O618       Ni623   1.955       .  S
C620        O621   1.269       .  A
C620       C2250   1.467       .  S
O625       Ni631   1.902       .  S
O625        C646   1.263   1_445  A
O626       Ni649   1.898       .  S
O626        C635   1.266       .  A
O627       Ni631   1.905   1_565  S
O627       Ni649   1.896   1_565  S
O627       Ni643   1.945   1_455  S
O627        H650   0.966       .  S
C628        O645   1.288       .  A
C628        O637   1.277       .  A
C628       C2081   1.503   1_565  S
O629       Ni648   1.928   1_455  S
O629        C635   1.274   1_565  A
O630       Ni648   1.899       .  S
O630        C632   1.269       .  A
Ni631       O634   1.919   1_545  S
Ni631       O636   1.907       .  S
C632        O642   1.284       .  A
C632       C2089   1.485       .  S
O633       Ni649   1.969       .  S
O633        C639   1.288       .  A
O634        C639   1.275   1_565  A
C635       C2094   1.467       .  S
O636        C638   1.266       .  A
O637       Ni648   1.929       .  S
C638        O644   1.268       .  A
C638       C2102   1.476       .  S
C639       C2085   1.502       .  S
H640        O641   0.966       .  S
O641       Ni649   1.938   1_655  S
O641       Ni643   1.911   1_545  S
O641       Ni648   1.892   1_545  S
O642       Ni643   1.965       .  S
Ni643       O647   1.941       .  S
Ni643       O645   1.961       .  S
O644       Ni649   1.927       .  S
C646        O647   1.280       .  A
C646       C2209   1.482       .  S
O651       Ni657   1.906       .  S
O651        C672   1.264       .  A
O652       Ni675   1.897       .  S
O652        C661   1.266   1_545  A
O653       Ni657   1.913   1_565  S
O653       Ni675   1.901   1_565  S
O653       Ni669   1.941   1_565  S
O653        H676   0.966       .  S
C654        O671   1.285       .  A
C654        O663   1.275   1_545  A
C654       C2086   1.502       .  S
O655       Ni674   1.935       .  S
O655        C661   1.275       .  A
O656       Ni674   1.913       .  S
O656        C658   1.275       .  A
Ni657       O660   1.926       .  S
Ni657       O662   1.901       .  S
C658        O668   1.270       .  A
C658       C2073   1.484       .  S
O659       Ni675   1.960       .  S
O659        C665   1.286       .  A
O660        C665   1.275       .  A
C661       C2077   1.469       .  S
O662        C664   1.268       .  A
O663       Ni674   1.929       .  S
C664        O670   1.267       .  A
C664       C2097   1.478       .  S
C665       C2082   1.503       .  S
H666        O667   0.966       .  S
O667       Ni675   1.941       .  S
O667       Ni669   1.912       .  S
O667       Ni674   1.907   1_545  S
O668       Ni669   1.925   1_565  S
Ni669       O673   1.915   1_545  S
Ni669       O671   1.957       .  S
O670       Ni675   1.923       .  S
C672        O673   1.269   1_545  A
C672       C2214   1.467       .  S
O677       Ni683   1.913       .  S
O677        C698   1.268       .  A
O678       Ni701   1.887       .  S
O678        C687   1.260       .  A
O679       Ni683   1.922   1_565  S
O679       Ni701   1.900   1_565  S
O679       Ni695   1.908   1_565  S
O679        H702   0.966       .  S
C680        O697   1.268       .  A
C680        O689   1.270   1_545  A
C680       C2065   1.475       .  S
O681       Ni700   1.924   1_545  S
O681        C687   1.269       .  A
O682       Ni700   1.896       .  S
O682        C684   1.270       .  A
Ni683       O686   1.931   1_455  S
Ni683       O688   1.902       .  S
C684        O694   1.284       .  A
C684       C2069   1.478       .  S
O685       Ni701   1.904   1_665  S
O685        C691   1.268   1_565  A
O686        C691   1.272       .  A
C687       C2093   1.465       .  S
O688        C690   1.268       .  A
O689       Ni700   1.922       .  S
C690        O696   1.272       .  A
C690       C2130   1.482       .  S
C691       C2062   1.473       .  S
H692        O693   0.967       .  S
O693       Ni701   1.931       .  S
O693       Ni695   1.925       .  S
O693       Ni700   1.921   1_545  S
O694       Ni695   1.968   1_565  S
Ni695       O699   1.919   1_545  S
Ni695       O697   1.908       .  S
O696       Ni701   1.945       .  S
C698        O699   1.274   1_545  A
C698       C2057   1.478       .  S
O703       Ni709   1.917       .  S
O703        C724   1.268       .  A
O704       Ni727   1.901       .  S
O704        C713   1.264       .  A
O705       Ni709   1.923   1_565  S
O705       Ni727   1.909   1_565  S
O705       Ni721   1.911   1_565  S
O705        H728   0.966       .  S
C706        O723   1.272       .  A
C706        O715   1.272       .  A
C706       C2061   1.476       .  S
O707       Ni726   1.928       .  S
O707        C713   1.270   1_565  A
O708       Ni726   1.895       .  S
O708        C710   1.268       .  A
Ni709       O712   1.928       .  S
Ni709       O714   1.907       .  S
C710        O720   1.281       .  A
C710       C2053   1.480       .  S
O711       Ni727   1.905   1_565  S
O711        C717   1.270   1_565  A
O712        C717   1.273       .  A
C713       C2078   1.475       .  S
O714        C716   1.268       .  A
O715       Ni726   1.915   1_545  S
C716        O722   1.272       .  A
C716       C2117   1.483       .  S
C717       C2066   1.474       .  S
H718        O719   0.966       .  S
O719       Ni727   1.920       .  S
O719       Ni721   1.926       .  S
O719       Ni726   1.918   1_545  S
O720       Ni721   1.957   1_565  S
Ni721       O725   1.922   1_545  S
Ni721       O723   1.917       .  S
O722       Ni727   1.942       .  S
C724        O725   1.273   1_545  A
C724       C2049   1.480   1_545  S
O729       Ni735   1.922       .  S
O729        C750   1.272       .  A
O730       Ni753   1.905       .  S
O730        C739   1.266       .  A
O731       Ni735   1.910       .  S
O731       Ni753   1.904       .  S
O731       Ni747   1.911       .  S
O731        H754   0.966       .  S
C732        O749   1.276       .  A
C732        O741   1.273       .  A
C732       C2037   1.466       .  S
O733       Ni752   1.914       .  S
O733        C739   1.267       .  A
O734       Ni752   1.888       .  S
O734        C736   1.265       .  A
Ni735       O738   1.934       .  S
Ni735       O740   1.910       .  S
C736        O746   1.280       .  A
C736       C2074   1.469       .  S
O737       Ni753   1.906       .  S
O737        C743   1.273       .  A
O738        C743   1.276       .  A
C739       C2045   1.465       .  S
O740        C742   1.269       .  A
O741       Ni752   1.905       .  S
C742        O748   1.272       .  A
C742       C2190   1.483       .  S
C743       C2042   1.475       .  S
H744        O745   0.966       .  S
O745       Ni753   1.913       .  S
O745       Ni747   1.904       .  S
O745       Ni752   1.897       .  S
O746       Ni747   1.950       .  S
Ni747       O751   1.914       .  S
Ni747       O749   1.921       .  S
O748       Ni753   1.942       .  S
C750        O751   1.274       .  A
C750       C2314   1.476       .  S
O755       Ni761   1.908       .  S
O755        C776   1.261       .  A
O756       Ni779   1.918       .  S
O756        C765   1.275       .  A
O757       Ni761   1.898       .  S
O757       Ni779   1.900       .  S
O757       Ni773   1.913       .  S
O757        H780   0.966       .  S
C758        O775   1.281   1_455  A
C758        O767   1.278   1_455  A
C758       C2041   1.479       .  S
O759       Ni778   1.948       .  S
O759        C765   1.279       .  A
O760       Ni778   1.919       .  S
O760        C762   1.276       .  A
Ni761       O764   1.899       .  S
Ni761       O766   1.892       .  S
C762        O772   1.277       .  A
C762       C2090   1.495       .  S
O763       Ni779   1.931       .  S
O763        C769   1.279       .  A
O764        C769   1.274       .  A
C765       C2033   1.490       .  S
O766        C768   1.263       .  A
O767       Ni778   1.921       .  S
C768        O774   1.277       .  A
C768       C2178   1.473       .  S
C769       C2038   1.468       .  S
H770        O771   0.966       .  S
O771       Ni779   1.910       .  S
O771       Ni773   1.915       .  S
O771       Ni778   1.898       .  S
O772       Ni773   1.946       .  S
Ni773       O777   1.944       .  S
Ni773       O775   1.925       .  S
O774       Ni779   1.948       .  S
C776        O777   1.279       .  A
C776       C2306   1.480       .  S
O781       Ni787   1.919       .  S
O781        C802   1.270       .  A
O782       Ni805   1.893       .  S
O782        C791   1.263       .  A
O783       Ni787   1.920       .  S
O783       Ni805   1.905       .  S
O783       Ni799   1.914       .  S
O783        H806   0.967       .  S
C784        O801   1.271       .  A
C784        O793   1.273       .  A
C784       C2030   1.473       .  S
O785       Ni804   1.924       .  S
O785        C791   1.270       .  A
O786       Ni804   1.906       .  S
O786        C788   1.271       .  A
Ni787       O790   1.930       .  S
Ni787       O792   1.906       .  S
C788        O798   1.276       .  A
C788       C2070   1.491       .  S
O789       Ni805   1.905       .  S
O789        C795   1.270       .  A
O790        C795   1.272       .  A
C791       C2046   1.459       .  S
O792        C794   1.270       .  A
O793       Ni804   1.918       .  S
C794        O800   1.273       .  A
C794       C2161   1.482       .  S
C795       C2026   1.472       .  S
H796        O797   0.966       .  S
O797       Ni805   1.915       .  S
O797       Ni799   1.904       .  S
O797       Ni804   1.916       .  S
O798       Ni799   1.943       .  S
Ni799       O803   1.891       .  S
Ni799       O801   1.911       .  S
O800       Ni805   1.947       .  S
C802        O803   1.265       .  A
C802       C2021   1.463       .  S
O807       Ni813   1.913       .  S
O807        C828   1.266       .  A
O808       Ni831   1.920       .  S
O808        C817   1.271       .  A
O809       Ni813   1.934       .  S
O809       Ni831   1.931       .  S
O809       Ni825   1.937       .  S
O809        H832   0.966       .  S
C810        O827   1.277       .  A
C810        O819   1.273       .  A
C810       C2025   1.477       .  S
O811       Ni830   1.941       .  S
O811        C817   1.274       .  A
O812       Ni830   1.910       .  S
O812        C814   1.274       .  A
Ni813       O816   1.918       .  S
Ni813       O818   1.888       .  S
C814        O824   1.277       .  A
C814       C2054   1.491       .  S
O815       Ni831   1.903       .  S
O815        C821   1.263       .  A
O816        C821   1.267       .  A
C817       C2034   1.491       .  S
O818        C820   1.267       .  A
O819       Ni830   1.913       .  S
C820        O826   1.283       .  A
C820       C2150   1.475       .  S
C821       C2029   1.474   1_655  S
H822        O823   0.966       .  S
O823       Ni831   1.897       .  S
O823       Ni825   1.914       .  S
O823       Ni830   1.913       .  S
O824       Ni825   1.946       .  S
Ni825       O829   1.929       .  S
Ni825       O827   1.923       .  S
O826       Ni831   1.958       .  S
C828        O829   1.275       .  A
C828       C2017   1.486       .  S
O833       Ni839   1.933       .  S
O833        C854   1.272       .  A
O834       Ni857   1.915       .  S
O834        C843   1.272       .  A
O835       Ni839   1.920       .  S
O835       Ni857   1.914       .  S
O835       Ni851   1.911       .  S
O835        H858   0.966       .  S
C836        O853   1.265       .  A
C836        O845   1.270       .  A
C836       C2005   1.474       .  S
O837       Ni856   1.909       .  S
O837        C843   1.267       .  A
O838       Ni856   1.901       .  S
O838        C840   1.269       .  A
Ni839       O842   1.913       .  S
Ni839       O844   1.909       .  S
C840        O850   1.275       .  A
C840       C1998   1.482       .  S
O841       Ni857   1.920       .  S
O841        C847   1.274       .  A
O842        C847   1.271       .  A
C843       C1993   1.473       .  S
O844        C846   1.274       .  A
O845       Ni856   1.930       .  S
C846        O852   1.279       .  A
C846       C2009   1.492       .  S
C847       C2001   1.477       .  S
H848        O849   0.966       .  S
O849       Ni857   1.927       .  S
O849       Ni851   1.909       .  S
O849       Ni856   1.928       .  S
O850       Ni851   1.950       .  S
Ni851       O855   1.888       .  S
Ni851       O853   1.903       .  S
O852       Ni857   1.950       .  S
C854        O855   1.260       .  A
C854       C2013   1.465       .  S
O859       Ni865   1.926   1_655  S
O859        C880   1.270       .  A
O860       Ni883   1.927       .  S
O860        C869   1.276   1_455  A
O861       Ni865   1.917       .  S
O861       Ni883   1.926       .  S
O861       Ni877   1.929   1_455  S
O861        H884   0.965       .  S
C862        O879   1.272       .  A
C862        O871   1.273       .  A
C862       C2002   1.474       .  S
O863       Ni882   1.917       .  S
O863        C869   1.269       .  A
O864       Ni882   1.905       .  S
O864        C866   1.268       .  A
Ni865       O868   1.916       .  S
Ni865       O870   1.891       .  S
C866        O876   1.270       .  A
C866       C1981   1.478       .  S
O867       Ni883   1.915       .  S
O867        C873   1.271       .  A
O868        C873   1.271       .  A
C869       C1977   1.485   1_655  S
O870        C872   1.268       .  A
O871       Ni882   1.929       .  S
C872        O878   1.283       .  A
C872       C1985   1.475       .  S
C873       C2006   1.474       .  S
H874        O875   0.967       .  S
O875       Ni883   1.908   1_655  S
O875       Ni877   1.903       .  S
O875       Ni882   1.917       .  S
O876       Ni877   1.940       .  S
Ni877       O881   1.902       .  S
Ni877       O879   1.908       .  S
O878       Ni883   1.954       .  S
C880        O881   1.264       .  A
C880       C1989   1.474       .  S
O885       Ni891   1.927       .  S
O885        C906   1.272       .  A
O886       Ni909   1.917       .  S
O886        C895   1.269       .  A
O887       Ni891   1.901       .  S
O887       Ni909   1.911       .  S
O887       Ni903   1.917       .  S
O887        H910   0.966       .  S
C888        O905   1.277       .  A
C888        O897   1.274       .  A
C888       C1965   1.469       .  S
O889       Ni908   1.908       .  S
O889        C895   1.265       .  A
O890       Ni908   1.900       .  S
O890        C892   1.265       .  A
Ni891       O894   1.921       .  S
Ni891       O896   1.894       .  S
C892        O902   1.271       .  A
C892       C1961   1.476       .  S
O893       Ni909   1.903       .  S
O893        C899   1.271       .  A
O894        C899   1.276       .  A
C895       C2158   1.470       .  S
O896        C898   1.266       .  A
O897       Ni908   1.909       .  S
C898        O904   1.279       .  A
C898       C1973   1.474       .  S
C899       C1969   1.467       .  S
H900        O901   0.966       .  S
O901       Ni909   1.908       .  S
O901       Ni903   1.901       .  S
O901       Ni908   1.909       .  S
O902       Ni903   1.935       .  S
Ni903       O907   1.902       .  S
Ni903       O905   1.918       .  S
O904       Ni909   1.949       .  S
C906        O907   1.266       .  A
C906       C2014   1.472       .  S
O911       Ni917   1.938       .  S
O911        C932   1.275       .  A
O912       Ni935   1.912       .  S
O912        C921   1.269       .  A
O913       Ni917   1.907       .  S
O913       Ni935   1.905       .  S
O913       Ni929   1.900       .  S
O913        H936   0.966       .  S
C914        O931   1.269       .  A
C914        O923   1.274       .  A
C914       C1970   1.468       .  S
O915       Ni934   1.918       .  S
O915        C921   1.268       .  A
O916       Ni934   1.898       .  S
O916        C918   1.266       .  A
Ni917       O920   1.909       .  S
Ni917       O922   1.916       .  S
C918        O928   1.272       .  A
C918       C1953   1.473       .  S
O919       Ni935   1.921       .  S
O919        C925   1.278       .  A
O920        C925   1.275       .  A
C921       C2146   1.471       .  S
O922        C924   1.274       .  A
O923       Ni934   1.916   1_455  S
C924        O930   1.269       .  A
C924       C1957   1.481       .  S
C925       C1966   1.471       .  S
H926        O927   0.966       .  S
O927       Ni935   1.914       .  S
O927       Ni929   1.907       .  S
O927       Ni934   1.912       .  S
O928       Ni929   1.933       .  S
Ni929       O933   1.891       .  S
Ni929       O931   1.904   1_655  S
O930       Ni935   1.925       .  S
C932        O933   1.263       .  A
C932       C1990   1.469       .  S
O937       Ni943   1.949       .  S
O937        C958   1.276       .  A
O938       Ni961   1.950       .  S
O938        C947   1.283       .  A
O939       Ni943   1.909       .  S
O939       Ni961   1.922       .  S
O939       Ni955   1.908       .  S
O939        H962   0.966       .  S
C940        O957   1.270       .  A
C940        O949   1.274       .  A
C940       C1946   1.487       .  S
O941       Ni960   1.920       .  S
O941        C947   1.268       .  A
O942       Ni960   1.901       .  S
O942        C944   1.268       .  A
Ni943       O946   1.916   1_455  S
Ni943       O948   1.911       .  S
C944        O954   1.275       .  A
C944       C1938   1.472       .  S
O945       Ni961   1.960       .  S
O945        C951   1.291   1_455  A
O946        C951   1.273       .  A
C947       C1933   1.495       .  S
O948        C950   1.275       .  A
O949       Ni960   1.926       .  S
C950        O956   1.273       .  A
C950       C1986   1.484       .  S
C951       C1941   1.489       .  S
H952        O953   0.966       .  S
O953       Ni961   1.939       .  S
O953       Ni955   1.916       .  S
O953       Ni960   1.921       .  S
O954       Ni955   1.933       .  S
Ni955       O959   1.907       .  S
Ni955       O957   1.919       .  S
O956       Ni961   1.937       .  S
C958        O959   1.268       .  A
C958       C1949   1.488       .  S
O963       Ni969   1.919       .  S
O963        C984   1.273       .  A
O964       Ni987   1.888       .  S
O964        C973   1.261       .  A
O965       Ni969   1.913       .  S
O965       Ni987   1.912       .  S
O965       Ni981   1.963       .  S
O965        H988   0.966       .  S
C966        O983   1.291       .  A
C966        O975   1.279       .  A
C966       C1942   1.494       .  S
O967       Ni986   1.906       .  S
O967        C973   1.268       .  A
O968       Ni986   1.919       .  S
O968        C970   1.267       .  A
Ni969       O972   1.939       .  S
Ni969       O974   1.905       .  S
C970        O980   1.261       .  A
C970       C1925   1.478       .  S
O971       Ni987   1.902       .  S
O971        C977   1.263       .  A
O972        C977   1.273       .  A
C973       C1921   1.451       .  S
O974        C976   1.272       .  A
O975       Ni986   1.934       .  S
C976        O982   1.282       .  A
C976       C2010   1.481       .  S
C977       C1945   1.483       .  S
H978        O979   0.968       .  S
O979       Ni987   1.906       .  S
O979       Ni981   1.868       .  S
O979       Ni986   1.903       .  S
O980       Ni981   1.922       .  S
Ni981       O985   1.883       .  S
Ni981       O983   1.947       .  S
O982       Ni987   1.951       .  S
C984        O985   1.263       .  A
C984       C1929   1.455       .  S
O989       Ni995   1.950       .  S
O989       C1010   1.280       .  A
O990      Ni1013   1.906       .  S
O990        C999   1.267       .  A
O991       Ni995   1.919       .  S
O991      Ni1013   1.910       .  S
O991      Ni1007   1.930       .  S
O991       H1014   0.965       .  S
C992       O1009   1.277       .  A
C992       O1001   1.263       .  A
C992       C1913   1.490   1_455  S
O993      Ni1012   1.901       .  S
O993        C999   1.267       .  A
O994      Ni1012   1.890       .  S
O994        C996   1.271       .  A
Ni995       O998   1.951       .  S
Ni995      O1000   1.910       .  S
C996       O1006   1.284       .  A
C996       C1909   1.479       .  S
O997      Ni1013   1.919       .  S
O997       C1003   1.272       .  A
O998       C1003   1.278       .  A
C999       C2022   1.468       .  S
O1000      C1002   1.274       .  A
O1001     Ni1012   1.922       .  S
C1002      O1008   1.274       .  A
C1002      C1974   1.485       .  S
C1003      C1917   1.496       .  S
H1004      O1005   0.968       .  S
O1005     Ni1013   1.934       .  S
O1005     Ni1007   1.905       .  S
O1005     Ni1012   1.920       .  S
O1006     Ni1007   1.966       .  S
Ni1007     O1011   1.913       .  S
Ni1007     O1009   1.947       .  S
O1008     Ni1013   1.936       .  S
C1010      O1011   1.273       .  A
C1010      C1950   1.488       .  S
O1015     Ni1021   1.911       .  S
O1015      C1036   1.267       .  A
O1016     Ni1039   1.932       .  S
O1016      C1025   1.280       .  A
O1017     Ni1021   1.917       .  S
O1017     Ni1039   1.914       .  S
O1017     Ni1033   1.926       .  S
O1017      H1040   0.966       .  S
C1018      O1035   1.266       .  A
C1018      O1027   1.273       .  A
C1018      C1918   1.497       .  S
O1019     Ni1038   1.915       .  S
O1019      C1025   1.270       .  A
O1020     Ni1038   1.902       .  S
O1020      C1022   1.269       .  A
Ni1021     O1024   1.921       .  S
Ni1021     O1026   1.890       .  S
C1022      O1032   1.275       .  A
C1022      C1905   1.485       .  S
O1023     Ni1039   1.950       .  S
O1023      C1029   1.281       .  A
O1024      C1029   1.266       .  A
C1025      C2018   1.488       .  S
O1026      C1028   1.266       .  A
O1027     Ni1038   1.947       .  S
C1028      O1034   1.285       .  A
C1028      C1958   1.473       .  S
C1029      C1914   1.488       .  S
H1030      O1031   0.966       .  S
O1031     Ni1039   1.942       .  S
O1031     Ni1033   1.909       .  S
O1031     Ni1038   1.930       .  S
O1032     Ni1033   1.948       .  S
Ni1033     O1037   1.884       .  S
Ni1033     O1035   1.916       .  S
O1034     Ni1039   1.972       .  S
C1036      O1037   1.259       .  A
C1036      C1930   1.458       .  S
O1041     Ni1047   1.932       .  S
O1041      C1062   1.272       .  A
O1042     Ni1065   1.913       .  S
O1042      C1051   1.269       .  A
O1043     Ni1047   1.901       .  S
O1043     Ni1065   1.905       .  S
O1043     Ni1059   1.908       .  S
O1043      H1066   0.966       .  S
C1044      O1061   1.278       .  A
C1044      O1053   1.273       .  A
C1044      C1889   1.472       .  S
O1045     Ni1064   1.909       .  S
O1045      C1051   1.266       .  A
O1046     Ni1064   1.904       .  S
O1046      C1048   1.266       .  A
Ni1047     O1050   1.929       .  S
Ni1047     O1052   1.898       .  S
C1048      O1058   1.272       .  A
C1048      C1997   1.477       .  S
O1049     Ni1065   1.909       .  S
O1049      C1055   1.275       .  A
O1050      C1055   1.279       .  A
C1051      C1885   1.469       .  S
O1052      C1054   1.265       .  A
O1053     Ni1064   1.904       .  S
C1054      O1060   1.275       .  A
C1054      C1898   1.475       .  S
C1055      C1893   1.472       .  S
H1056      O1057   0.966       .  S
O1057     Ni1065   1.912       .  S
O1057     Ni1059   1.903       .  S
O1057     Ni1064   1.907       .  S
O1058     Ni1059   1.933       .  S
Ni1059     O1063   1.902       .  S
Ni1059     O1061   1.928       .  S
O1060     Ni1065   1.942       .  S
C1062      O1063   1.265       .  A
C1062      C1901   1.464       .  S
O1067     Ni1073   1.928       .  S
O1067      C1088   1.272       .  A
O1068     Ni1091   1.919       .  S
O1068      C1077   1.273       .  A
O1069     Ni1073   1.895       .  S
O1069     Ni1091   1.903       .  S
O1069     Ni1085   1.902       .  S
O1069      H1092   0.966       .  S
C1070      O1087   1.277       .  A
C1070      O1079   1.275       .  A
C1070      C1894   1.474       .  S
O1071     Ni1090   1.913       .  S
O1071      C1077   1.266       .  A
O1072     Ni1090   1.905       .  S
O1072      C1074   1.266       .  A
Ni1073     O1076   1.923       .  S
Ni1073     O1078   1.898       .  S
C1074      O1084   1.271       .  A
C1074      C1982   1.475       .  S
O1075     Ni1091   1.911       .  S
O1075      C1081   1.277       .  A
O1076      C1081   1.278       .  A
C1077      C1873   1.473       .  S
O1078      C1080   1.266       .  A
O1079     Ni1090   1.910   1_455  S
C1080      O1086   1.279       .  A
C1080      C1877   1.482       .  S
C1081      C1890   1.469       .  S
H1082      O1083   0.966       .  S
O1083     Ni1091   1.913       .  S
O1083     Ni1085   1.903       .  S
O1083     Ni1090   1.907       .  S
O1084     Ni1085   1.929       .  S
Ni1085     O1089   1.902       .  S
Ni1085     O1087   1.926   1_655  S
O1086     Ni1091   1.956       .  S
C1088      O1089   1.265       .  A
C1088      C1881   1.465       .  S
O1093     Ni1099   1.932       .  S
O1093      C1114   1.269       .  A
O1094     Ni1117   1.911       .  S
O1094      C1103   1.272       .  A
O1095     Ni1099   1.899       .  S
O1095     Ni1117   1.894       .  S
O1095     Ni1111   1.895       .  S
O1095      H1118   0.966       .  S
C1096      O1113   1.268       .  A
C1096      O1105   1.273       .  A
C1096      C1865   1.476       .  S
O1097     Ni1116   1.919       .  S
O1097      C1103   1.269       .  A
O1098     Ni1116   1.897       .  S
O1098      C1100   1.268       .  A
Ni1099     O1102   1.911       .  S
Ni1099     O1104   1.902       .  S
C1100      O1110   1.274       .  A
C1100      C1962   1.483       .  S
O1101     Ni1117   1.934       .  S
O1101      C1107   1.283       .  A
O1102      C1107   1.277       .  A
C1103      C2114   1.473       .  S
O1104      C1106   1.269       .  A
O1105     Ni1116   1.928       .  S
C1106      O1112   1.275       .  A
C1106      C1869   1.490       .  S
C1107      C1861   1.476       .  S
H1108      O1109   0.966       .  S
O1109     Ni1117   1.926       .  S
O1109     Ni1111   1.916       .  S
O1109     Ni1116   1.919       .  S
O1110     Ni1111   1.946       .  S
Ni1111     O1115   1.900       .  S
Ni1111     O1113   1.904       .  S
O1112     Ni1117   1.945       .  S
C1114      O1115   1.265       .  A
C1114      C1902   1.462       .  S
O1119     Ni1125   1.932       .  S
O1119      C1140   1.270   1_455  A
O1120     Ni1143   1.893       .  S
O1120      C1129   1.264       .  A
O1121     Ni1125   1.906       .  S
O1121     Ni1143   1.893       .  S
O1121     Ni1137   1.898   1_455  S
O1121      H1144   0.966       .  S
C1122      O1139   1.268       .  A
C1122      O1131   1.269       .  A
C1122      C1862   1.473       .  S
O1123     Ni1142   1.907       .  S
O1123      C1129   1.267   1_655  A
O1124     Ni1142   1.895       .  S
O1124      C1126   1.269       .  A
Ni1125     O1128   1.922       .  S
Ni1125     O1130   1.905       .  S
C1126      O1136   1.275       .  A
C1126      C1954   1.480       .  S
O1127     Ni1143   1.920       .  S
O1127      C1133   1.277       .  A
O1128      C1133   1.278       .  A
C1129      C2125   1.461       .  S
O1130      C1132   1.269       .  A
O1131     Ni1142   1.921       .  S
C1132      O1138   1.269       .  A
C1132      C1857   1.485       .  S
C1133      C1866   1.476       .  S
H1134      O1135   0.966       .  S
O1135     Ni1143   1.928   1_655  S
O1135     Ni1137   1.913       .  S
O1135     Ni1142   1.918       .  S
O1136     Ni1137   1.949       .  S
Ni1137     O1141   1.900       .  S
Ni1137     O1139   1.908       .  S
O1138     Ni1143   1.930       .  S
C1140      O1141   1.265       .  A
C1140      C1882   1.459       .  S
O1145     Ni1151   1.923       .  S
O1145      C1166   1.270   1_545  A
O1146     Ni1169   1.901   1_545  S
O1146      C1155   1.266   1_545  A
O1147     Ni1151   1.922   1_565  S
O1147     Ni1169   1.913       .  S
O1147     Ni1163   1.917       .  S
O1147      H1170   0.966       .  S
C1148      O1165   1.269       .  A
C1148      O1157   1.271       .  A
C1148      C1846   1.473   1_455  S
O1149     Ni1168   1.914       .  S
O1149      C1155   1.268       .  A
O1150     Ni1168   1.901       .  S
O1150      C1152   1.268       .  A
Ni1151     O1154   1.912   1_545  S
Ni1151     O1156   1.907       .  S
C1152      O1162   1.271       .  A
C1152      C1937   1.477       .  S
O1153     Ni1169   1.910       .  S
O1153      C1159   1.270       .  A
O1154      C1159   1.270       .  A
C1155      C1841   1.468       .  S
O1156      C1158   1.272       .  A
O1157     Ni1168   1.926       .  S
C1158      O1164   1.275       .  A
C1158      C1897   1.483       .  S
C1159      C1849   1.471       .  S
H1160      O1161   0.966       .  S
O1161     Ni1169   1.914   1_545  S
O1161     Ni1163   1.907   1_545  S
O1161     Ni1168   1.922   1_545  S
O1162     Ni1163   1.940       .  S
Ni1163     O1167   1.894       .  S
Ni1163     O1165   1.906       .  S
O1164     Ni1169   1.936   1_545  S
C1166      O1167   1.263       .  A
C1166      C1853   1.463       .  S
O1171     Ni1177   1.940       .  S
O1171      C1192   1.278   1_545  A
O1172     Ni1195   1.911   1_545  S
O1172      C1181   1.270   1_545  A
O1173     Ni1177   1.900   1_565  S
O1173     Ni1195   1.899       .  S
O1173     Ni1189   1.902       .  S
O1173      H1196   0.966       .  S
C1174      O1191   1.273       .  A
C1174      O1183   1.272   1_565  A
C1174      C1850   1.468       .  S
O1175     Ni1194   1.914       .  S
O1175      C1181   1.266       .  A
O1176     Ni1194   1.894       .  S
O1176      C1178   1.265       .  A
Ni1177     O1180   1.921   1_545  S
Ni1177     O1182   1.918       .  S
C1178      O1188   1.280       .  A
C1178      C1926   1.475       .  S
O1179     Ni1195   1.920       .  S
O1179      C1185   1.278       .  A
O1180      C1185   1.277       .  A
C1181      C1833   1.467       .  S
O1182      C1184   1.274       .  A
O1183     Ni1194   1.907   1_545  S
C1184      O1190   1.273       .  A
C1184      C1878   1.489       .  S
C1185      C1845   1.476       .  S
H1186      O1187   0.966       .  S
O1187     Ni1195   1.920   1_545  S
O1187     Ni1189   1.906   1_545  S
O1187     Ni1194   1.913   1_545  S
O1188     Ni1189   1.946       .  S
Ni1189     O1193   1.912       .  S
Ni1189     O1191   1.919       .  S
O1190     Ni1195   1.937   1_545  S
C1192      O1193   1.273       .  A
C1192      C1837   1.482       .  S
O1197     Ni1203   1.913       .  S
O1197      C1218   1.268   1_545  A
O1198     Ni1221   1.922       .  S
O1198      C1207   1.273       .  A
O1199     Ni1203   1.910   1_565  S
O1199     Ni1221   1.922   1_565  S
O1199     Ni1215   1.922       .  S
O1199      H1222   0.966       .  S
C1200      O1217   1.274       .  A
C1200      O1209   1.273       .  A
C1200      C1830   1.468       .  S
O1201     Ni1220   1.913       .  S
O1201      C1207   1.266   1_565  A
O1202     Ni1220   1.901       .  S
O1202      C1204   1.266       .  A
Ni1203     O1206   1.909       .  S
Ni1203     O1208   1.891       .  S
C1204      O1214   1.269       .  A
C1204      C1910   1.471       .  S
O1205     Ni1221   1.913   1_565  S
O1205      C1211   1.272   1_465  A
O1206      C1211   1.270   1_455  A
C1207      C2058   1.475       .  S
O1208      C1210   1.267       .  A
O1209     Ni1220   1.910   1_545  S
C1210      O1216   1.280       .  A
C1210      C1858   1.473       .  S
C1211      C1826   1.471   1_545  S
H1212      O1213   0.966       .  S
O1213     Ni1221   1.909       .  S
O1213     Ni1215   1.904   1_545  S
O1213     Ni1220   1.916   1_545  S
O1214     Ni1215   1.925       .  S
Ni1215     O1219   1.902       .  S
Ni1215     O1217   1.914   1_565  S
O1216     Ni1221   1.953       .  S
C1218      O1219   1.264       .  A
C1218      C1854   1.467       .  S
O1223     Ni1229   1.930       .  S
O1223      C1244   1.271   1_545  A
O1224     Ni1247   1.923       .  S
O1224      C1233   1.271       .  A
O1225     Ni1229   1.915   1_565  S
O1225     Ni1247   1.927   1_565  S
O1225     Ni1241   1.924       .  S
O1225      H1248   0.966       .  S
C1226      O1243   1.274       .  A
C1226      O1235   1.271       .  A
C1226      C1825   1.471       .  S
O1227     Ni1246   1.914       .  S
O1227      C1233   1.265   1_565  A
O1228     Ni1246   1.900       .  S
O1228      C1230   1.266       .  A
Ni1229     O1232   1.921       .  S
Ni1229     O1234   1.899       .  S
C1230      O1240   1.273       .  A
C1230      C1906   1.479       .  S
O1231     Ni1247   1.901   1_565  S
O1231      C1237   1.268   1_565  A
O1232      C1237   1.272       .  A
C1233      C2050   1.478       .  S
O1234      C1236   1.270       .  A
O1235     Ni1246   1.905       .  S
C1236      O1242   1.280       .  A
C1236      C1870   1.477       .  S
C1237      C1829   1.469       .  S
H1238      O1239   0.966       .  S
O1239     Ni1247   1.904       .  S
O1239     Ni1241   1.914   1_545  S
O1239     Ni1246   1.922   1_545  S
O1240     Ni1241   1.939       .  S
Ni1241     O1245   1.914       .  S
Ni1241     O1243   1.919       .  S
O1242     Ni1247   1.958       .  S
C1244      O1245   1.269       .  A
C1244      C1838   1.483       .  S
O1249     Ni1255   1.919   1_455  S
O1249      C1270   1.266       .  A
O1250     Ni1273   1.922       .  S
O1250      C1259   1.275       .  A
O1251     Ni1255   1.913   1_455  S
O1251     Ni1273   1.916       .  S
O1251     Ni1267   1.914       .  S
O1251      H1274   0.966       .  S
C1252      O1269   1.276       .  A
C1252      O1261   1.277       .  A
C1252      C1813   1.472       .  S
O1253     Ni1272   1.944       .  S
O1253      C1259   1.277       .  A
O1254     Ni1272   1.919       .  S
O1254      C1256   1.274       .  A
Ni1255     O1258   1.904       .  S
Ni1255     O1260   1.892   1_655  S
C1256      O1266   1.273       .  A
C1256      C1818   1.489       .  S
O1257     Ni1273   1.918   1_655  S
O1257      C1263   1.274       .  A
O1258      C1263   1.271       .  A
C1259      C1821   1.493       .  S
O1260      C1262   1.266       .  A
O1261     Ni1272   1.919       .  S
C1262      O1268   1.279       .  A
C1262      C1805   1.474       .  S
C1263      C1809   1.468       .  S
H1264      O1265   0.966       .  S
O1265     Ni1273   1.905       .  S
O1265     Ni1267   1.911       .  S
O1265     Ni1272   1.906       .  S
O1266     Ni1267   1.934       .  S
Ni1267     O1271   1.923       .  S
Ni1267     O1269   1.915       .  S
O1268     Ni1273   1.948       .  S
C1270      O1271   1.271       .  A
C1270      C2410   1.480       .  S
O1275     Ni1281   1.918       .  S
O1275      C1296   1.267       .  A
O1276     Ni1299   1.894       .  S
O1276      C1285   1.262       .  A
O1277     Ni1281   1.919       .  S
O1277     Ni1299   1.906       .  S
O1277     Ni1293   1.908       .  S
O1277      H1300   0.966       .  S
C1278      O1295   1.274       .  A
C1278      O1287   1.272       .  A
C1278      C1810   1.469       .  S
O1279     Ni1298   1.930       .  S
O1279      C1285   1.271       .  A
O1280     Ni1298   1.907       .  S
O1280      C1282   1.273       .  A
Ni1281     O1284   1.923       .  S
Ni1281     O1286   1.907       .  S
C1282      O1292   1.279       .  A
C1282      C1797   1.491       .  S
O1283     Ni1299   1.905       .  S
O1283      C1289   1.272       .  A
O1284      C1289   1.274       .  A
C1285      C1802   1.464       .  S
O1286      C1288   1.268       .  A
O1287     Ni1298   1.907       .  S
C1288      O1294   1.268       .  A
C1288      C1793   1.479       .  S
C1289      C1814   1.470       .  S
H1290      O1291   0.966       .  S
O1291     Ni1299   1.914       .  S
O1291     Ni1293   1.915       .  S
O1291     Ni1298   1.912       .  S
O1292     Ni1293   1.947       .  S
Ni1293     O1297   1.915       .  S
Ni1293     O1295   1.917       .  S
O1294     Ni1299   1.931       .  S
C1296      O1297   1.272       .  A
C1296      C2394   1.473       .  S
O1301     Ni1307   1.920       .  S
O1301      C1322   1.266       .  A
O1302     Ni1325   1.915       .  S
O1302      C1311   1.272       .  A
O1303     Ni1307   1.914       .  S
O1303     Ni1325   1.916       .  S
O1303     Ni1319   1.912   1_455  S
O1303      H1326   0.966       .  S
C1304      O1321   1.277       .  A
C1304      O1313   1.276       .  A
C1304      C1781   1.469       .  S
O1305     Ni1324   1.949   1_455  S
O1305      C1311   1.279       .  A
O1306     Ni1324   1.924       .  S
O1306      C1308   1.276       .  A
Ni1307     O1310   1.906       .  S
Ni1307     O1312   1.899       .  S
C1308      O1318   1.273       .  A
C1308      C1790   1.490       .  S
O1309     Ni1325   1.915       .  S
O1309      C1315   1.272       .  A
O1310      C1315   1.272       .  A
C1311      C1822   1.488       .  S
O1312      C1314   1.267       .  A
O1313     Ni1324   1.918       .  S
C1314      O1320   1.278       .  A
C1314      C1777   1.479       .  S
C1315      C1785   1.469       .  S
H1316      O1317   0.966       .  S
O1317     Ni1325   1.902   1_655  S
O1317     Ni1319   1.911       .  S
O1317     Ni1324   1.909       .  S
O1318     Ni1319   1.934       .  S
Ni1319     O1323   1.924       .  S
Ni1319     O1321   1.913       .  S
O1320     Ni1325   1.947       .  S
C1322      O1323   1.273   1_455  A
C1322      C1978   1.480   1_455  S
O1327     Ni1333   1.906       .  S
O1327      C1348   1.264       .  A
O1328     Ni1351   1.907       .  S
O1328      C1337   1.268       .  A
O1329     Ni1333   1.910       .  S
O1329     Ni1351   1.907       .  S
O1329     Ni1345   1.912       .  S
O1329      H1352   0.966       .  S
C1330      O1347   1.274       .  A
C1330      O1339   1.276       .  A
C1330      C1786   1.467       .  S
O1331     Ni1350   1.924       .  S
O1331      C1337   1.272       .  A
O1332     Ni1350   1.895       .  S
O1332      C1334   1.266       .  A
Ni1333     O1336   1.903       .  S
Ni1333     O1338   1.896       .  S
C1334      O1344   1.279       .  A
C1334      C1773   1.475       .  S
O1335     Ni1351   1.921       .  S
O1335      C1341   1.275       .  A
O1336      C1341   1.272       .  A
C1337      C1801   1.473       .  S
O1338      C1340   1.265       .  A
O1339     Ni1350   1.919       .  S
C1340      O1346   1.273       .  A
C1340      C1769   1.474       .  S
C1341      C1782   1.469       .  S
H1342      O1343   0.966       .  S
O1343     Ni1351   1.910       .  S
O1343     Ni1345   1.908       .  S
O1343     Ni1350   1.899       .  S
O1344     Ni1345   1.949       .  S
Ni1345     O1349   1.922       .  S
Ni1345     O1347   1.908       .  S
O1346     Ni1351   1.939       .  S
C1348      O1349   1.272       .  A
C1348      C1994   1.473       .  S
O1353     Ni1359   1.916       .  S
O1353      C1374   1.270       .  A
O1354     Ni1377   1.892       .  S
O1354      C1363   1.262       .  A
O1355     Ni1359   1.922       .  S
O1355     Ni1377   1.901       .  S
O1355     Ni1371   1.911       .  S
O1355      H1378   0.967       .  S
C1356      O1373   1.265       .  A
C1356      O1365   1.272       .  A
C1356      C1761   1.482       .  S
O1357     Ni1376   1.931       .  S
O1357      C1363   1.272       .  A
O1358     Ni1376   1.897       .  S
O1358      C1360   1.271       .  A
Ni1359     O1362   1.934       .  S
Ni1359     O1364   1.908       .  S
C1360      O1370   1.287       .  A
C1360      C1817   1.482       .  S
O1361     Ni1377   1.909       .  S
O1361      C1367   1.269       .  A
O1362      C1367   1.273       .  A
C1363      C1765   1.472       .  S
O1364      C1366   1.270       .  A
O1365     Ni1376   1.936       .  S
C1366      O1372   1.272       .  A
C1366      C1753   1.482       .  S
C1367      C1758   1.478       .  S
H1368      O1369   0.966       .  S
O1369     Ni1377   1.935       .  S
O1369     Ni1371   1.919       .  S
O1369     Ni1376   1.920       .  S
O1370     Ni1371   1.971       .  S
Ni1371     O1375   1.914       .  S
Ni1371     O1373   1.907       .  S
O1372     Ni1377   1.946       .  S
C1374      O1375   1.272       .  A
C1374      C2286   1.477       .  S
O1379     Ni1385   1.917       .  S
O1379      C1400   1.270       .  A
O1380     Ni1403   1.895       .  S
O1380      C1389   1.263       .  A
O1381     Ni1385   1.927       .  S
O1381     Ni1403   1.904       .  S
O1381     Ni1397   1.917       .  S
O1381      H1404   0.966       .  S
C1382      O1399   1.269       .  A
C1382      O1391   1.271       .  A
C1382      C1757   1.478       .  S
O1383     Ni1402   1.933       .  S
O1383      C1389   1.272       .  A
O1384     Ni1402   1.902       .  S
O1384      C1386   1.273       .  A
Ni1385     O1388   1.942       .  S
Ni1385     O1390   1.904       .  S
C1386      O1396   1.285       .  A
C1386      C1798   1.480       .  S
O1387     Ni1403   1.904       .  S
O1387      C1393   1.266       .  A
O1388      C1393   1.274       .  A
C1389      C1749   1.475       .  S
O1390      C1392   1.269       .  A
O1391     Ni1402   1.931       .  S
C1392      O1398   1.274       .  A
C1392      C1746   1.481       .  S
C1393      C1762   1.481       .  S
H1394      O1395   0.966       .  S
O1395     Ni1403   1.928       .  S
O1395     Ni1397   1.918       .  S
O1395     Ni1402   1.918       .  S
O1396     Ni1397   1.970       .  S
Ni1397     O1401   1.920       .  S
Ni1397     O1399   1.911       .  S
O1398     Ni1403   1.947       .  S
C1400      O1401   1.274       .  A
C1400      C2274   1.480       .  S
O1405     Ni1411   1.917       .  S
O1405      C1426   1.267       .  A
O1406     Ni1429   1.895       .  S
O1406      C1415   1.265       .  A
O1407     Ni1411   1.914       .  S
O1407     Ni1429   1.907       .  S
O1407     Ni1423   1.912       .  S
O1407      H1430   0.966       .  S
C1408      O1425   1.275       .  A
C1408      O1417   1.277       .  A
C1408      C1737   1.466       .  S
O1409     Ni1428   1.938       .  S
O1409      C1415   1.276       .  A
O1410     Ni1428   1.914       .  S
O1410      C1412   1.273       .  A
Ni1411     O1414   1.917       .  S
Ni1411     O1416   1.900       .  S
C1412      O1422   1.271       .  A
C1412      C1774   1.484       .  S
O1413     Ni1429   1.911       .  S
O1413      C1419   1.271       .  A
O1414      C1419   1.273       .  A
C1415      C1766   1.472       .  S
O1416      C1418   1.266       .  A
O1417     Ni1428   1.918       .  S
C1418      O1424   1.273       .  A
C1418      C1734   1.476       .  S
C1419      C1741   1.472       .  S
H1420      O1421   0.966       .  S
O1421     Ni1429   1.900       .  S
O1421     Ni1423   1.900       .  S
O1421     Ni1428   1.902       .  S
O1422     Ni1423   1.929       .  S
Ni1423     O1427   1.906       .  S
Ni1423     O1425   1.909       .  S
O1424     Ni1429   1.936       .  S
C1426      O1427   1.267       .  A
C1426      C1886   1.468       .  S
O1431     Ni1437   1.910       .  S
O1431      C1452   1.266       .  A
O1432     Ni1455   1.906       .  S
O1432      C1441   1.267       .  A
O1433     Ni1437   1.914       .  S
O1433     Ni1455   1.906       .  S
O1433     Ni1449   1.909       .  S
O1433      H1456   0.966       .  S
C1434      O1451   1.273   1_455  A
C1434      O1443   1.277   1_455  A
C1434      C1742   1.473       .  S
O1435     Ni1454   1.931       .  S
O1435      C1441   1.273       .  A
O1436     Ni1454   1.898       .  S
O1436      C1438   1.267       .  A
Ni1437     O1440   1.910       .  S
Ni1437     O1442   1.901       .  S
C1438      O1448   1.282       .  A
C1438      C1789   1.481       .  S
O1439     Ni1455   1.911       .  S
O1439      C1445   1.273       .  A
O1440      C1445   1.273       .  A
C1441      C1750   1.479       .  S
O1442      C1444   1.265       .  A
O1443     Ni1454   1.923       .  S
C1444      O1450   1.273       .  A
C1444      C1730   1.480       .  S
C1445      C1738   1.467       .  S
H1446      O1447   0.966       .  S
O1447     Ni1455   1.912       .  S
O1447     Ni1449   1.915       .  S
O1447     Ni1454   1.903       .  S
O1448     Ni1449   1.959       .  S
Ni1449     O1453   1.923       .  S
Ni1449     O1451   1.910       .  S
O1450     Ni1455   1.939       .  S
C1452      O1453   1.273       .  A
C1452      C1874   1.475       .  S
O1457     Ni1463   1.911       .  S
O1457      C1478   1.265       .  A
O1458     Ni1481   1.905       .  S
O1458      C1467   1.269       .  A
O1459     Ni1463   1.906   1_565  S
O1459     Ni1481   1.903   1_565  S
O1459     Ni1475   1.911       .  S
O1459      H1482   0.966       .  S
C1460      O1477   1.276   1_565  A
C1460      O1469   1.279       .  A
C1460      C1714   1.472   1_565  S
O1461     Ni1480   1.941       .  S
O1461      C1467   1.277   1_565  A
O1462     Ni1480   1.913       .  S
O1462      C1464   1.272       .  A
Ni1463     O1466   1.907       .  S
Ni1463     O1468   1.898       .  S
C1464      O1474   1.271       .  A
C1464      C1721   1.488       .  S
O1465     Ni1481   1.915       .  S
O1465      C1471   1.273       .  A
O1466      C1471   1.273       .  A
C1467      C1726   1.480   1_545  S
O1468      C1470   1.266       .  A
O1469     Ni1480   1.926       .  S
C1470      O1476   1.277       .  A
C1470      C1754   1.477       .  S
C1471      C1718   1.468       .  S
H1472      O1473   0.966       .  S
O1473     Ni1481   1.904       .  S
O1473     Ni1475   1.905   1_545  S
O1473     Ni1480   1.902   1_545  S
O1474     Ni1475   1.933       .  S
Ni1475     O1479   1.914       .  S
Ni1475     O1477   1.912   1_565  S
O1476     Ni1481   1.944       .  S
C1478      O1479   1.269   1_545  A
C1478      C2234   1.469   1_545  S
O1483     Ni1489   1.906       .  S
O1483      C1504   1.266   1_545  A
O1484     Ni1507   1.891       .  S
O1484      C1493   1.262       .  A
O1485     Ni1489   1.906   1_565  S
O1485     Ni1507   1.896   1_565  S
O1485     Ni1501   1.911       .  S
O1485      H1508   0.966       .  S
C1486      O1503   1.273   1_455  A
C1486      O1495   1.276       .  A
C1486      C1717   1.466   1_565  S
O1487     Ni1506   1.922       .  S
O1487      C1493   1.272   1_565  A
O1488     Ni1506   1.899       .  S
O1488      C1490   1.266       .  A
Ni1489     O1492   1.915       .  S
Ni1489     O1494   1.904       .  S
C1490      O1500   1.276       .  A
C1490      C1705   1.474       .  S
O1491     Ni1507   1.917       .  S
O1491      C1497   1.275       .  A
O1492      C1497   1.275       .  A
C1493      C1709   1.464       .  S
O1494      C1496   1.265       .  A
O1495     Ni1506   1.918   1_455  S
C1496      O1502   1.270       .  A
C1496      C1745   1.479       .  S
C1497      C1713   1.473       .  S
H1498      O1499   0.966       .  S
O1499     Ni1507   1.912       .  S
O1499     Ni1501   1.906   1_545  S
O1499     Ni1506   1.900   1_545  S
O1500     Ni1501   1.939       .  S
Ni1501     O1505   1.915       .  S
Ni1501     O1503   1.907       .  S
O1502     Ni1507   1.932       .  S
C1504      O1505   1.268       .  A
C1504      C2225   1.468       .  S
O1509     Ni1515   1.909       .  S
O1509      C1530   1.268       .  A
O1510     Ni1533   1.894       .  S
O1510      C1519   1.263       .  A
O1511     Ni1515   1.924       .  S
O1511     Ni1533   1.906       .  S
O1511     Ni1527   1.925       .  S
O1511      H1534   0.966       .  S
C1512      O1529   1.272   1_565  A
C1512      O1521   1.272       .  A
C1512      C1697   1.483       .  S
O1513     Ni1532   1.941       .  S
O1513      C1519   1.274       .  A
O1514     Ni1532   1.911       .  S
O1514      C1516   1.276       .  A
Ni1515     O1518   1.930   1_565  S
Ni1515     O1520   1.898   1_565  S
C1516      O1526   1.275       .  A
C1516      C1702   1.486       .  S
O1517     Ni1533   1.905       .  S
O1517      C1523   1.264       .  A
O1518      C1523   1.270   1_545  A
C1519      C1725   1.475       .  S
O1520      C1522   1.270       .  A
O1521     Ni1532   1.926       .  S
C1522      O1528   1.277       .  A
C1522      C1733   1.482       .  S
C1523      C1693   1.475       .  S
H1524      O1525   0.966   1_545  S
O1525     Ni1533   1.917       .  S
O1525     Ni1527   1.915       .  S
O1525     Ni1532   1.921       .  S
O1526     Ni1527   1.941       .  S
Ni1527     O1531   1.906       .  S
Ni1527     O1529   1.918   1_565  S
O1528     Ni1533   1.954   1_545  S
C1530      O1531   1.268       .  A
C1530      C1842   1.468       .  S
O1535     Ni1541   1.902       .  S
O1535      C1556   1.268       .  A
O1536     Ni1559   1.876   1_545  S
O1536      C1545   1.258   1_545  A
O1537     Ni1541   1.925       .  S
O1537     Ni1559   1.896       .  S
O1537     Ni1553   1.915       .  S
O1537      H1560   0.967       .  S
C1538      O1555   1.267       .  A
C1538      O1547   1.271       .  A
C1538      C1694   1.476       .  S
O1539     Ni1558   1.927       .  S
O1539      C1545   1.271       .  A
O1540     Ni1558   1.900       .  S
O1540      C1542   1.271       .  A
Ni1541     O1544   1.935   1_565  S
Ni1541     O1546   1.908   1_565  S
C1542      O1552   1.288       .  A
C1542      C1689   1.487       .  S
O1543     Ni1559   1.909       .  S
O1543      C1549   1.268       .  A
O1544      C1549   1.271   1_545  A
C1545      C1710   1.458   1_565  S
O1546      C1548   1.268       .  A
O1547     Ni1558   1.929       .  S
C1548      O1554   1.272       .  A
C1548      C1729   1.483       .  S
C1549      C1698   1.479       .  S
H1550      O1551   0.966   1_545  S
O1551     Ni1559   1.929       .  S
O1551     Ni1553   1.916       .  S
O1551     Ni1558   1.919       .  S
O1552     Ni1553   1.979       .  S
Ni1553     O1557   1.917       .  S
Ni1553     O1555   1.906       .  S
O1554     Ni1559   1.946   1_545  S
C1556      O1557   1.273       .  A
C1556      C1834   1.474       .  S
O1561     Ni1567   1.912   1_655  S
O1561      C1582   1.267       .  A
O1562     Ni1585   1.884       .  S
O1562      C1571   1.263       .  A
O1563     Ni1567   1.908       .  S
O1563     Ni1585   1.888       .  S
O1563     Ni1579   1.912   1_455  S
O1563      H1586   0.966       .  S
C1564      O1581   1.272       .  A
C1564      O1573   1.276       .  A
C1564      C1678   1.489       .  S
O1565     Ni1584   1.935       .  S
O1565      C1571   1.275   1_655  A
O1566     Ni1584   1.912       .  S
O1566      C1568   1.273       .  A
Ni1567     O1570   1.928       .  S
Ni1567     O1572   1.907       .  S
C1568      O1578   1.272       .  A
C1568      C1706   1.482       .  S
O1569     Ni1585   1.937       .  S
O1569      C1575   1.285       .  A
O1570      C1575   1.275       .  A
C1571      C1685   1.459       .  S
O1572      C1574   1.268       .  A
O1573     Ni1584   1.941       .  S
C1574      O1580   1.266       .  A
C1574      C1806   1.481       .  S
C1575      C1681   1.491       .  S
H1576      O1577   0.966       .  S
O1577     Ni1585   1.941   1_655  S
O1577     Ni1579   1.907       .  S
O1577     Ni1584   1.919       .  S
O1578     Ni1579   1.928       .  S
Ni1579     O1583   1.895       .  S
Ni1579     O1581   1.917       .  S
O1580     Ni1585   1.929       .  S
C1582      O1583   1.262       .  A
C1582      C2329   1.459       .  S
O1587     Ni1593   1.915       .  S
O1587      C1608   1.267       .  A
O1588     Ni1611   1.905       .  S
O1588      C1597   1.267       .  A
O1589     Ni1593   1.912       .  S
O1589     Ni1611   1.908       .  S
O1589     Ni1605   1.937       .  S
O1589      H1612   0.966       .  S
C1590      O1607   1.288       .  A
C1590      O1599   1.273       .  A
C1590      C1682   1.487       .  S
O1591     Ni1610   1.925       .  S
O1591      C1597   1.271       .  A
O1592     Ni1610   1.896       .  S
O1592      C1594   1.267       .  A
Ni1593     O1596   1.927       .  S
Ni1593     O1598   1.899       .  S
C1594      O1604   1.280       .  A
C1594      C1722   1.479       .  S
O1595     Ni1611   1.931       .  S
O1595      C1601   1.275       .  A
O1596      C1601   1.276       .  A
C1597      C1673   1.474       .  S
O1598      C1600   1.266       .  A
O1599     Ni1610   1.912       .  S
C1600      O1606   1.274       .  A
C1600      C1794   1.475       .  S
C1601      C1677   1.492       .  S
H1602      O1603   0.966       .  S
O1603     Ni1611   1.915       .  S
O1603     Ni1605   1.915       .  S
O1603     Ni1610   1.900       .  S
O1604     Ni1605   1.954       .  S
Ni1605     O1609   1.944       .  S
Ni1605     O1607   1.955       .  S
O1606     Ni1611   1.936       .  S
C1608      O1609   1.281       .  A
C1608      C2342   1.490       .  S
O1613     Ni1619   1.919       .  S
O1613      C1634   1.271       .  A
O1614     Ni1637   1.890       .  S
O1614      C1623   1.258       .  A
O1615     Ni1619   1.921       .  S
O1615     Ni1637   1.908       .  S
O1615     Ni1631   1.935       .  S
O1615      H1638   0.967       .  S
C1616      O1633   1.289       .  A
C1616      O1625   1.269       .  A
C1616      C1669   1.491       .  S
O1617     Ni1636   1.923       .  S
O1617      C1623   1.267       .  A
O1618     Ni1636   1.887       .  S
O1618      C1620   1.266       .  A
Ni1619     O1622   1.946   1_455  S
Ni1619     O1624   1.907       .  S
C1620      O1630   1.282       .  A
C1620      C1701   1.474       .  S
O1621     Ni1637   1.907   1_655  S
O1621      C1627   1.266       .  A
O1622      C1627   1.275       .  A
C1623      C1686   1.465       .  S
O1624      C1626   1.269       .  A
O1625     Ni1636   1.901       .  S
C1626      O1632   1.271       .  A
C1626      C1778   1.485       .  S
C1627      C1666   1.488       .  S
H1628      O1629   0.966       .  S
O1629     Ni1637   1.918       .  S
O1629     Ni1631   1.931       .  S
O1629     Ni1636   1.913       .  S
O1630     Ni1631   1.958       .  S
Ni1631     O1635   1.949       .  S
Ni1631     O1633   1.967       .  S
O1632     Ni1637   1.944       .  S
C1634      O1635   1.286       .  A
C1634      C1934   1.498       .  S
O1639     Ni1645   1.903       .  S
O1639      C1660   1.263       .  A
O1640     Ni1663   1.894       .  S
O1640      C1649   1.267       .  A
O1641     Ni1645   1.911       .  S
O1641     Ni1663   1.890       .  S
O1641     Ni1657   1.921       .  S
O1641      H1664   0.966       .  S
C1642      O1659   1.271       .  A
C1642      O1651   1.277       .  A
C1642      C1665   1.486       .  S
O1643     Ni1662   1.937       .  S
O1643      C1649   1.278       .  A
O1644     Ni1662   1.923       .  S
O1644      C1646   1.275       .  A
Ni1645     O1648   1.921       .  S
Ni1645     O1650   1.904       .  S
C1646      O1656   1.275       .  A
C1646      C1690   1.495       .  S
O1647     Ni1663   1.955       .  S
O1647      C1653   1.290       .  A
O1648      C1653   1.275       .  A
C1649      C1674   1.463       .  S
O1650      C1652   1.267       .  A
O1651     Ni1662   1.940       .  S
C1652      O1658   1.267       .  A
C1652      C1770   1.480       .  S
C1653      C1670   1.495       .  S
H1654      O1655   0.966       .  S
O1655     Ni1663   1.943       .  S
O1655     Ni1657   1.900       .  S
O1655     Ni1662   1.913       .  S
O1656     Ni1657   1.939       .  S
Ni1657     O1661   1.888       .  S
Ni1657     O1659   1.914       .  S
O1658     Ni1663   1.928       .  S
C1660      O1661   1.259       .  A
C1660      C1922   1.449       .  S
C1665      C1666   1.347       .  D
C1665      H1667   1.087       .  S
C1666      H1668   1.087       .  S
C1669      C1670   1.338       .  D
C1669      H1671   1.088       .  S
C1670      H1672   1.087       .  S
C1673      C1674   1.343       .  D
C1673      H1675   1.087       .  S
C1674      H1676   1.087       .  S
C1677      C1678   1.350       .  D
C1677      H1679   1.086       .  S
C1678      H1680   1.087       .  S
C1681      C1682   1.339       .  D
C1681      H1683   1.087       .  S
C1682      H1684   1.088       .  S
C1685      C1686   1.337       .  D
C1685      H1687   1.087       .  S
C1686      H1688   1.088   1_455  S
C1689      C1690   1.349       .  D
C1689      H1691   1.087       .  S
C1690      H1692   1.086       .  S
C1693      C1694   1.347       .  D
C1693      H1695   1.087       .  S
C1694      H1696   1.087       .  S
C1697      C1698   1.352   1_455  D
C1697      H1699   1.086   1_565  S
C1698      H1700   1.087   1_655  S
C1701      C1702   1.341       .  D
C1701      H1703   1.088       .  S
C1702      H1704   1.086       .  S
C1705      C1706   1.344       .  D
C1705      H1707   1.087       .  S
C1706      H1708   1.087       .  S
C1709      C1710   1.336       .  D
C1709      H1711   1.087       .  S
C1710      H1712   1.088   1_545  S
C1713      C1714   1.346       .  D
C1713      H1715   1.087   1_545  S
C1714      H1716   1.087       .  S
C1717      C1718   1.344       .  D
C1717      H1719   1.087       .  S
C1718      H1720   1.087       .  S
C1721      C1722   1.344       .  D
C1721      H1723   1.086       .  S
C1722      H1724   1.087       .  S
C1725      C1726   1.344       .  D
C1725      H1727   1.087       .  S
C1726      H1728   1.087   1_565  S
C1729      C1730   1.345       .  D
C1729      H1731   1.086       .  S
C1730      H1732   1.087       .  S
C1733      C1734   1.346       .  D
C1733      H1735   1.086       .  S
C1734      H1736   1.087       .  S
C1737      C1738   1.344       .  D
C1737      H1739   1.087       .  S
C1738      H1740   1.087       .  S
C1741      C1742   1.345       .  D
C1741      H1743   1.087       .  S
C1742      H1744   1.087       .  S
C1745      C1746   1.346       .  D
C1745      H1747   1.087       .  S
C1746      H1748   1.086       .  S
C1749      C1750   1.345       .  D
C1749      H1751   1.087       .  S
C1750      H1752   1.087       .  S
C1753      C1754   1.342       .  D
C1753      H1755   1.086       .  S
C1754      H1756   1.088       .  S
C1757      C1758   1.350       .  D
C1757      H1759   1.087       .  S
C1758      H1760   1.087       .  S
C1761      C1762   1.347   1_455  D
C1761      H1763   1.087       .  S
C1762      H1764   1.087   1_655  S
C1765      C1766   1.340       .  D
C1765      H1767   1.087       .  S
C1766      H1768   1.087       .  S
C1769      C1770   1.343       .  D
C1769      H1771   1.088       .  S
C1770      H1772   1.086       .  S
C1773      C1774   1.343       .  D
C1773      H1775   1.087       .  S
C1774      H1776   1.087       .  S
C1777      C1778   1.343       .  D
C1777      H1779   1.088       .  S
C1778      H1780   1.086       .  S
C1781      C1782   1.349       .  D
C1781      H1783   1.087       .  S
C1782      H1784   1.087       .  S
C1785      C1786   1.345       .  D
C1785      H1787   1.087       .  S
C1786      H1788   1.087       .  S
C1789      C1790   1.346       .  D
C1789      H1791   1.087       .  S
C1790      H1792   1.087       .  S
C1793      C1794   1.342       .  D
C1793      H1795   1.086       .  S
C1794      H1796   1.088       .  S
C1797      C1798   1.351       .  D
C1797      H1799   1.086       .  S
C1798      H1800   1.087       .  S
C1801      C1802   1.343       .  D
C1801      H1803   1.087       .  S
C1802      H1804   1.087       .  S
C1805      C1806   1.340       .  D
C1805      H1807   1.088   1_455  S
C1806      H1808   1.086       .  S
C1809      C1810   1.348       .  D
C1809      H1811   1.087       .  S
C1810      H1812   1.087       .  S
C1813      C1814   1.347       .  D
C1813      H1815   1.087       .  S
C1814      H1816   1.087       .  S
C1817      C1818   1.346       .  D
C1817      H1819   1.087       .  S
C1818      H1820   1.086       .  S
C1821      C1822   1.352       .  D
C1821      H1823   1.086   1_455  S
C1822      H1824   1.086       .  S
C1825      C1826   1.350       .  D
C1825      H1827   1.087   1_565  S
C1826      H1828   1.087       .  S
C1829      C1830   1.346       .  D
C1829      H1831   1.087   1_545  S
C1830      H1832   1.087       .  S
C1833      C1834   1.354   1_556  D
C1833      H1835   1.087   1_565  S
C1834      H1836   1.086       .  S
C1837      C1838   1.349       .  D
C1837      H1839   1.087       .  S
C1838      H1840   1.087       .  S
C1841      C1842   1.348   1_556  D
C1841      H1843   1.087   1_565  S
C1842      H1844   1.087       .  S
C1845      C1846   1.350       .  D
C1845      H1847   1.087       .  S
C1846      H1848   1.087       .  S
C1849      C1850   1.347       .  D
C1849      H1851   1.087       .  S
C1850      H1852   1.087   1_565  S
C1853      C1854   1.343       .  D
C1853      H1855   1.087       .  S
C1854      H1856   1.087       .  S
C1857      C1858   1.344       .  D
C1857      H1859   1.087       .  S
C1858      H1860   1.087       .  S
C1861      C1862   1.351       .  D
C1861      H1863   1.087       .  S
C1862      H1864   1.087       .  S
C1865      C1866   1.347       .  D
C1865      H1867   1.087       .  S
C1866      H1868   1.087       .  S
C1869      C1870   1.351       .  D
C1869      H1871   1.086       .  S
C1870      H1872   1.087       .  S
C1873      C1874   1.355   1_556  D
C1873      H1875   1.086       .  S
C1874      H1876   1.086       .  S
C1877      C1878   1.346       .  D
C1877      H1879   1.087       .  S
C1878      H1880   1.087       .  S
C1881      C1882   1.339       .  D
C1881      H1883   1.087       .  S
C1882      H1884   1.087       .  S
C1885      C1886   1.349   1_556  D
C1885      H1887   1.086       .  S
C1886      H1888   1.087   1_554  S
C1889      C1890   1.349       .  D
C1889      H1891   1.087       .  S
C1890      H1892   1.087       .  S
C1893      C1894   1.347       .  D
C1893      H1895   1.087       .  S
C1894      H1896   1.087       .  S
C1897      C1898   1.346       .  D
C1897      H1899   1.087       .  S
C1898      H1900   1.087       .  S
C1901      C1902   1.339       .  D
C1901      H1903   1.087       .  S
C1902      H1904   1.087       .  S
C1905      C1906   1.347       .  D
C1905      H1907   1.086       .  S
C1906      H1908   1.087       .  S
C1909      C1910   1.348       .  D
C1909      H1911   1.086       .  S
C1910      H1912   1.087       .  S
C1913      C1914   1.338       .  D
C1913      H1915   1.087       .  S
C1914      H1916   1.087       .  S
C1917      C1918   1.352       .  D
C1917      H1919   1.086       .  S
C1918      H1920   1.087       .  S
C1921      C1922   1.338   1_556  D
C1921      H1923   1.087       .  S
C1922      H1924   1.087       .  S
C1925      C1926   1.338       .  D
C1925      H1927   1.087       .  S
C1926      H1928   1.088       .  S
C1929      C1930   1.337       .  D
C1929      H1931   1.087       .  S
C1930      H1932   1.088       .  S
C1933      C1934   1.369   1_556  D
C1933      H1935   1.086   1_556  S
C1934      H1936   1.086       .  S
C1937      C1938   1.342       .  D
C1937      H1939   1.086       .  S
C1938      H1940   1.088       .  S
C1941      C1942   1.338       .  D
C1941      H1943   1.087       .  S
C1942      H1944   1.087       .  S
C1945      C1946   1.345       .  D
C1945      H1947   1.087       .  S
C1946      H1948   1.086       .  S
C1949      C1950   1.349       .  D
C1949      H1951   1.087       .  S
C1950      H1952   1.086       .  S
C1953      C1954   1.345       .  D
C1953      H1955   1.087       .  S
C1954      H1956   1.086       .  S
C1957      C1958   1.342       .  D
C1957      H1959   1.087       .  S
C1958      H1960   1.087       .  S
C1961      C1962   1.347       .  D
C1961      H1963   1.087       .  S
C1962      H1964   1.086       .  S
C1965      C1966   1.349       .  D
C1965      H1967   1.087       .  S
C1966      H1968   1.087       .  S
C1969      C1970   1.342       .  D
C1969      H1971   1.087       .  S
C1970      H1972   1.087       .  S
C1973      C1974   1.344       .  D
C1973      H1975   1.087       .  S
C1974      H1976   1.087       .  S
C1977      C1978   1.358   1_456  D
C1977      H1979   1.086       .  S
C1978      H1980   1.086       .  S
C1981      C1982   1.343       .  D
C1981      H1983   1.087       .  S
C1982      H1984   1.087       .  S
C1985      C1986   1.342       .  D
C1985      H1987   1.087       .  S
C1986      H1988   1.086       .  S
C1989      C1990   1.341       .  D
C1989      H1991   1.087       .  S
C1990      H1992   1.087       .  S
C1993      C1994   1.355   1_556  D
C1993      H1995   1.087       .  S
C1994      H1996   1.086       .  S
C1997      C1998   1.345       .  D
C1997      H1999   1.087       .  S
C1998      H2000   1.086       .  S
C2001      C2002   1.351       .  D
C2001      H2003   1.086       .  S
C2002      H2004   1.087       .  S
C2005      C2006   1.347       .  D
C2005      H2007   1.087       .  S
C2006      H2008   1.087       .  S
C2009      C2010   1.349       .  D
C2009      H2011   1.086       .  S
C2010      H2012   1.087       .  S
C2013      C2014   1.341       .  D
C2013      H2015   1.087       .  S
C2014      H2016   1.087       .  S
C2017      C2018   1.362       .  D
C2017      H2019   1.086       .  S
C2018      H2020   1.086       .  S
C2021      C2022   1.346       .  D
C2021      H2023   1.087       .  S
C2022      H2024   1.087       .  S
C2025      C2026   1.352       .  D
C2025      H2027   1.086       .  S
C2026      H2028   1.087       .  S
C2029      C2030   1.346       .  D
C2029      H2031   1.087       .  S
C2030      H2032   1.087       .  S
C2033      C2034   1.352       .  D
C2033      H2035   1.087       .  S
C2034      H2036   1.086       .  S
C2037      C2038   1.347       .  D
C2037      H2039   1.087       .  S
C2038      H2040   1.087       .  S
C2041      C2042   1.351       .  D
C2041      H2043   1.086       .  S
C2042      H2044   1.087       .  S
C2045      C2046   1.341       .  D
C2045      H2047   1.087       .  S
C2046      H2048   1.087       .  S
C2049      C2050   1.356   1_565  D
C2049      H2051   1.086       .  S
C2050      H2052   1.086       .  S
C2053      C2054   1.347       .  D
C2053      H2055   1.087       .  S
C2054      H2056   1.086       .  S
C2057      C2058   1.356       .  D
C2057      H2059   1.086   1_545  S
C2058      H2060   1.086       .  S
C2061      C2062   1.349       .  D
C2061      H2063   1.087       .  S
C2062      H2064   1.087   1_545  S
C2065      C2066   1.348       .  D
C2065      H2067   1.087       .  S
C2066      H2068   1.087   1_545  S
C2069      C2070   1.349       .  D
C2069      H2071   1.087       .  S
C2070      H2072   1.086       .  S
C2073      C2074   1.340       .  D
C2073      H2075   1.087       .  S
C2074      H2076   1.087       .  S
C2077      C2078   1.343   1_565  D
C2077      H2079   1.087       .  S
C2078      H2080   1.087       .  S
C2081      C2082   1.347       .  D
C2081      H2083   1.087       .  S
C2082      H2084   1.087       .  S
C2085      C2086   1.348       .  D
C2085      H2087   1.087   1_545  S
C2086      H2088   1.087       .  S
C2089      C2090   1.349       .  D
C2089      H2091   1.087       .  S
C2090      H2092   1.086       .  S
C2093      C2094   1.339       .  D
C2093      H2095   1.088       .  S
C2094      H2096   1.087       .  S
C2097      C2098   1.342       .  D
C2097      H2099   1.086       .  S
C2098      H2100   1.087       .  S
C2101      C2102   1.348       .  D
C2101      H2103   1.086       .  S
C2102      H2104   1.087       .  S
C2105      C2106   1.350       .  D
C2105      H2107   1.087       .  S
C2106      H2108   1.087       .  S
C2109      C2110   1.347       .  D
C2109      H2111   1.087       .  S
C2110      H2112   1.087       .  S
C2113      C2114   1.355       .  D
C2113      H2115   1.086       .  S
C2114      H2116   1.087       .  S
C2117      C2118   1.347       .  D
C2117      H2119   1.086       .  S
C2118      H2120   1.087       .  S
C2121      C2122   1.338       .  D
C2121      H2123   1.087       .  S
C2122      H2124   1.087       .  S
C2125      C2126   1.344   1_455  D
C2125      H2127   1.087       .  S
C2126      H2128   1.087       .  S
C2129      C2130   1.343       .  D
C2129      H2131   1.088       .  S
C2130      H2132   1.086       .  S
C2133      C2134   1.347       .  D
C2133      H2135   1.087       .  S
C2134      H2136   1.087       .  S
C2137      C2138   1.345       .  D
C2137      H2139   1.087       .  S
C2138      H2140   1.087       .  S
C2141      C2142   1.339       .  D
C2141      H2143   1.087       .  S
C2142      H2144   1.087   1_455  S
C2145      C2146   1.349       .  D
C2145      H2147   1.087       .  S
C2146      H2148   1.087       .  S
C2149      C2150   1.340       .  D
C2149      H2151   1.087       .  S
C2150      H2152   1.088       .  S
C2153      C2154   1.339       .  D
C2153      H2155   1.087       .  S
C2154      H2156   1.087       .  S
C2157      C2158   1.350       .  D
C2157      H2159   1.087       .  S
C2158      H2160   1.086       .  S
C2161      C2162   1.343       .  D
C2161      H2163   1.086       .  S
C2162      H2164   1.088       .  S
C2165      C2166   1.350       .  D
C2165      H2167   1.087       .  S
C2166      H2168   1.087       .  S
C2169      C2170   1.342       .  D
C2169      H2171   1.087       .  S
C2170      H2172   1.087       .  S
C2173      C2174   1.346       .  D
C2173      H2175   1.087       .  S
C2174      H2176   1.087       .  S
C2177      C2178   1.338       .  D
C2177      H2179   1.086       .  S
C2178      H2180   1.089       .  S
C2181      C2182   1.348       .  D
C2181      H2183   1.087       .  S
C2182      H2184   1.086       .  S
C2185      C2186   1.338       .  D
C2185      H2187   1.087       .  S
C2186      H2188   1.087       .  S
C2189      C2190   1.346       .  D
C2189      H2191   1.087       .  S
C2190      H2192   1.086       .  S
C2193      C2194   1.348       .  D
C2193      H2195   1.087       .  S
C2194      H2196   1.087       .  S
C2197      C2198   1.345       .  D
C2197      H2199   1.087       .  S
C2198      H2200   1.087       .  S
C2201      C2202   1.348       .  D
C2201      H2203   1.086       .  S
C2202      H2204   1.087       .  S
C2205      C2206   1.339       .  D
C2205      H2207   1.087       .  S
C2206      H2208   1.087       .  S
C2209      C2210   1.362   1_565  D
C2209      H2211   1.086       .  S
C2210      H2212   1.086   1_655  S
C2213      C2214   1.352       .  D
C2213      H2215   1.086       .  S
C2214      H2216   1.087   1_545  S
C2217      C2218   1.351   1_545  D
C2217      H2219   1.087   1_545  S
C2218      H2220   1.086       .  S
C2221      C2222   1.343   1_565  D
C2221      H2223   1.087       .  S
C2222      H2224   1.087       .  S
C2225      C2226   1.348       .  D
C2225      H2227   1.086       .  S
C2226      H2228   1.087   1_565  S
C2229      C2230   1.346   1_545  D
C2229      H2231   1.086       .  S
C2230      H2232   1.087       .  S
C2233      C2234   1.351   1_545  D
C2233      H2235   1.086       .  S
C2234      H2236   1.087       .  S
C2237      C2238   1.346       .  D
C2237      H2239   1.087   1_565  S
C2238      H2240   1.087       .  S
C2241      C2242   1.347   1_565  D
C2241      H2243   1.087       .  S
C2242      H2244   1.087       .  S
C2245      C2246   1.328       .  D
C2245      H2247   1.088       .  S
C2246      H2248   1.088       .  S
C2249      C2250   1.349       .  D
C2249      H2251   1.087       .  S
C2250      H2252   1.087       .  S
C2253      C2254   1.345       .  D
C2253      H2255   1.086       .  S
C2254      H2256   1.087       .  S
C2257      C2258   1.348       .  D
C2257      H2259   1.087       .  S
C2258      H2260   1.087       .  S
C2261      C2262   1.348       .  D
C2261      H2263   1.087       .  S
C2262      H2264   1.087       .  S
C2265      C2266   1.351       .  D
C2265      H2267   1.087       .  S
C2266      H2268   1.087       .  S
C2269      C2270   1.343       .  D
C2269      H2271   1.087       .  S
C2270      H2272   1.087       .  S
C2273      C2274   1.356       .  D
C2273      H2275   1.086       .  S
C2274      H2276   1.086       .  S
C2277      C2278   1.343       .  D
C2277      H2279   1.086       .  S
C2278      H2280   1.087       .  S
C2281      C2282   1.340       .  D
C2281      H2283   1.087       .  S
C2282      H2284   1.087       .  S
C2285      C2286   1.354       .  D
C2285      H2287   1.087       .  S
C2286      H2288   1.087       .  S
C2289      C2290   1.348       .  D
C2289      H2291   1.087       .  S
C2290      H2292   1.087       .  S
C2293      C2294   1.349       .  D
C2293      H2295   1.087       .  S
C2294      H2296   1.087       .  S
C2297      C2298   1.343       .  D
C2297      H2299   1.087       .  S
C2298      H2300   1.087       .  S
C2301      C2302   1.348       .  D
C2301      H2303   1.087       .  S
C2302      H2304   1.087       .  S
C2305      C2306   1.333       .  D
C2305      H2307   1.087       .  S
C2306      H2308   1.087       .  S
C2309      C2310   1.343       .  D
C2309      H2311   1.086       .  S
C2310      H2312   1.088       .  S
C2313      C2314   1.355       .  D
C2313      H2315   1.086       .  S
C2314      H2316   1.086       .  S
C2317      C2318   1.340       .  D
C2317      H2319   1.088       .  S
C2318      H2320   1.087       .  S
C2321      C2322   1.351       .  D
C2321      H2323   1.087       .  S
C2322      H2324   1.087       .  S
C2325      C2326   1.342       .  D
C2325      H2327   1.087       .  S
C2326      H2328   1.087       .  S
C2329      C2330   1.342       .  D
C2329      H2331   1.087       .  S
C2330      H2332   1.087   1_655  S
C2333      C2334   1.343       .  D
C2333      H2335   1.086       .  S
C2334      H2336   1.088       .  S
C2337      C2338   1.339       .  D
C2337      H2339   1.087       .  S
C2338      H2340   1.087       .  S
C2341      C2342   1.364       .  D
C2341      H2343   1.086       .  S
C2342      H2344   1.086       .  S
C2345      C2346   1.343       .  D
C2345      H2347   1.087       .  S
C2346      H2348   1.086       .  S
C2349      C2350   1.351       .  D
C2349      H2351   1.086       .  S
C2350      H2352   1.087       .  S
C2353      C2354   1.345       .  D
C2353      H2355   1.087       .  S
C2354      H2356   1.087       .  S
C2357      C2358   1.350       .  D
C2357      H2359   1.087       .  S
C2358      H2360   1.086       .  S
C2361      C2362   1.351       .  D
C2361      H2363   1.086       .  S
C2362      H2364   1.087       .  S
C2365      C2366   1.345       .  D
C2365      H2367   1.087       .  S
C2366      H2368   1.086       .  S
C2369      C2370   1.351       .  D
C2369      H2371   1.087       .  S
C2370      H2372   1.086       .  S
C2373      C2374   1.354       .  D
C2373      H2375   1.087       .  S
C2374      H2376   1.086       .  S
C2377      C2378   1.342       .  D
C2377      H2379   1.086       .  S
C2378      H2380   1.087       .  S
C2381      C2382   1.347   1_455  D
C2381      H2383   1.087   1_455  S
C2382      H2384   1.087       .  S
C2385      C2386   1.348       .  D
C2385      H2387   1.087       .  S
C2386      H2388   1.087       .  S
C2389      C2390   1.347       .  D
C2389      H2391   1.086       .  S
C2390      H2392   1.087       .  S
C2393      C2394   1.356       .  D
C2393      H2395   1.086       .  S
C2394      H2396   1.087       .  S
C2397      C2398   1.343       .  D
C2397      H2399   1.087       .  S
C2398      H2400   1.087       .  S
C2401      C2402   1.349       .  D
C2401      H2403   1.087       .  S
C2402      H2404   1.086       .  S
C2405      C2406   1.341       .  D
C2405      H2407   1.087       .  S
C2406      H2408   1.087       .  S
C2409      C2410   1.355       .  D
C2409      H2411   1.086       .  S
C2410      H2412   1.086       .  S
C2413      C2414   1.343       .  D
C2413      H2415   1.087       .  S
C2414      H2416   1.086       .  S
C2417      C2418   1.346       .  D
C2417      H2419   1.087       .  S
C2418      H2420   1.087       .  S
C2421      C2422   1.352       .  D
C2421      H2423   1.086       .  S
C2422      H2424   1.087       .  S
C2425      C2426   1.344       .  D
C2425      H2427   1.087       .  S
C2426      H2428   1.087       .  S
C2429      C2430   1.342       .  D
C2429      H2431   1.087       .  S
C2430      H2432   1.087       .  S
