geometry optimzed in LAMMPS
_audit_creation_date              2020-12-01 
_audit_creation_method            'lammps2cif' 
_symmetry_space_group_name_H-M    'P1' 
_symmetry_Int_Tables_number       1 
_symmetry_cell_setting            triclinic 
loop_ 
_symmetry_equiv_pos_as_xyz 
  x,y,z 
_cell_length_a                    34.82649742 
_cell_length_b                    34.81662369188618 
_cell_length_c                    43.476361155990425 
_cell_angle_alpha                 90.02106004785098 
_cell_angle_beta                  90.12857362358355 
_cell_angle_gamma                 89.67875049007522 
loop_ 
_atom_site_label 
_atom_site_type_symbol 
_atom_site_fract_x 
_atom_site_fract_y 
_atom_site_fract_z 
_atom_site_charge 
O1          O  0.39929666  0.81876880  0.50122143    -0.75000
O2          O  0.40697918  0.92932546  0.00248241    -0.75100
O3          O  0.40803692  0.87450018  0.04676214    -0.75100
O4          O  0.39672373  0.87323520  0.45701329    -0.75200
O5          O  0.33261163  0.87325240  0.45788573    -0.75100
O6          O  0.34399528  0.87515093  0.04716404    -0.75100
O7          O  0.33235804  0.92760516  0.50250914    -0.75100
O8          O  0.34379964  0.81912418  0.00396061    -0.75100
Ni9        Ni  0.40963196  0.87426802  0.00267052     1.25400
Ni10       Ni  0.34106401  0.87421120  0.00320722     1.25400
C11         C  0.37603104  0.80125175  0.00369273     0.87100
C12         C  0.36393339  0.94631043  0.50236493     0.87100
C13         C  0.37618596  0.87454713  0.06146168     0.87100
C14         C  0.36433879  0.87313032  0.44304097     0.87300
O15         O  0.40325949  0.81634728  0.25279829    -0.75000
O16         O  0.39759283  0.92588180  0.25520595    -0.75100
O17         O  0.39757345  0.86922372  0.29790915    -0.75100
O18         O  0.40308297  0.87292817  0.20996295    -0.75200
O19         O  0.33913468  0.87131894  0.20738060    -0.75100
O20         O  0.33358252  0.86680698  0.29522968    -0.75100
O21         O  0.33379496  0.92364661  0.25318159    -0.75100
O22         O  0.33929054  0.81382328  0.24960435    -0.75100
Ni23       Ni  0.40264745  0.87118955  0.25404420     1.25400
Ni24       Ni  0.33415262  0.86870615  0.25120573     1.25400
C25         C  0.37215093  0.79718943  0.25100738     0.87100
C26         C  0.36494002  0.94295253  0.25502446     0.87100
C27         C  0.36468175  0.86758468  0.31094430     0.87100
C28         C  0.37193552  0.87336694  0.19422876     0.87300
O29         O  0.33427465  0.24202023  0.49516855    -0.75000
O30         O  0.34064573  0.13174827  0.99645821    -0.75100
O31         O  0.33893893  0.18674767  0.04059444    -0.75100
O32         O  0.33134003  0.18450338  0.45329439    -0.75200
O33         O  0.39532558  0.18108821  0.45261830    -0.75100
O34         O  0.40294796  0.18793932  0.04201522    -0.75100
O35         O  0.39435412  0.12944540  0.49908246    -0.75100
O36         O  0.40392073  0.24181887  0.99732104    -0.75100
Ni37       Ni  0.33793106  0.18678665  0.99655435     1.25400
Ni38       Ni  0.40653303  0.18678145  0.99802808     1.25400
C39         C  0.37174452  0.25977256  0.99713424     0.87100
C40         C  0.37268582  0.11355122  0.99762342     0.87100
C41         C  0.37047083  0.18789321  0.05579262     0.87100
C42         C  0.36297823  0.18161261  0.43851119     0.87300
O43         O  0.33383896  0.23888389  0.24591677    -0.75000
O44         O  0.32936061  0.12902719  0.24801205    -0.75100
O45         O  0.33077194  0.18524425  0.29081557    -0.75100
O46         O  0.33290063  0.18263843  0.20257351    -0.75200
O47         O  0.39691591  0.18204325  0.20380542    -0.75100
O48         O  0.39465644  0.18035911  0.29182350    -0.75100
O49         O  0.39316972  0.12628081  0.24737609    -0.75100
O50         O  0.39784198  0.23612091  0.24864838    -0.75100
Ni51       Ni  0.32942030  0.18405197  0.24670991     1.25400
Ni52       Ni  0.39792264  0.18107083  0.24788878     1.25400
C53         C  0.36648716  0.25543391  0.24758884     0.87100
C54         C  0.36052975  0.10940032  0.24818450     0.87100
C55         C  0.36243985  0.18305022  0.30580546     0.87100
C56         C  0.36533872  0.18230220  0.18865531     0.87300
O57         O  0.81609534  0.65517642  0.49978818    -0.75000
O58         O  0.93321502  0.65267082  0.00099052    -0.75100
O59         O  0.87795101  0.65430992  0.04474120    -0.75100
O60         O  0.87085089  0.65428552  0.45580043    -0.75200
O61         O  0.87259853  0.71831157  0.45590337    -0.75100
O62         O  0.87685021  0.71833758  0.04322413    -0.75100
O63         O  0.92701111  0.71728758  0.50071028    -0.75100
O64         O  0.82285848  0.71676308  0.99830904    -0.75100
Ni65       Ni  0.87821692  0.65036152  0.00073885     1.25400
Ni66       Ni  0.87784305  0.71894439  0.99910402     1.25400
C67         C  0.80498368  0.68477160  0.99912895     0.87100
C68         C  0.94468207  0.68490064  0.50040406     0.87100
C69         C  0.87698909  0.68685674  0.05849258     0.87100
C70         C  0.87140721  0.68633036  0.44136000     0.87300
O71         O  0.82086122  0.65733397  0.24874806    -0.75000
O72         O  0.93078277  0.65592245  0.25137803    -0.75100
O73         O  0.87445386  0.65628693  0.29391541    -0.75100
O74         O  0.87757131  0.65696361  0.20590965    -0.75200
O75         O  0.87666507  0.72102626  0.20609138    -0.75100
O76         O  0.87609759  0.72031469  0.29424028    -0.75100
O77         O  0.93125932  0.71996361  0.25065809    -0.75100
O78         O  0.82120824  0.72145458  0.24996903    -0.75100
Ni79       Ni  0.87584396  0.65435056  0.24992307     1.25400
Ni80       Ni  0.87627963  0.72299109  0.25021015     1.25400
C81         C  0.80306410  0.68959042  0.24936710     0.87100
C82         C  0.94910773  0.68770943  0.25180019     0.87100
C83         C  0.87553841  0.68817788  0.30857706     0.87100
C84         C  0.87795907  0.68905484  0.19150304     0.87300
O85         O  0.23811823  0.71497292  0.50477515    -0.75000
O86         O  0.13530429  0.71759302  0.00602748    -0.75100
O87         O  0.19162896  0.71780651  0.04925022    -0.75100
O88         O  0.18119487  0.71446555  0.46216869    -0.75200
O89         O  0.18229783  0.65044465  0.46210059    -0.75100
O90         O  0.19056809  0.65392877  0.04945811    -0.75100
O91         O  0.12891888  0.65012204  0.50720176    -0.75100
O92         O  0.24553293  0.65338584  0.00561143    -0.75100
Ni93       Ni  0.19026478  0.71982196  0.00526653     1.25400
Ni94       Ni  0.19055863  0.65121780  0.00548713     1.25400
C95         C  0.26328574  0.68545354  0.00502219     0.87100
C96         C  0.11727505  0.68562343  0.00587833     0.87100
C97         C  0.19195907  0.68590861  0.06395370     0.87100
C98         C  0.18099577  0.68245892  0.44761024     0.87300
O99         O  0.24348528  0.71633534  0.25781279    -0.75000
O100        O  0.13347185  0.71864208  0.25562483    -0.75100
O101        O  0.18718564  0.71576759  0.30087667    -0.75100
O102        O  0.18987587  0.71949412  0.21301522    -0.75200
O103        O  0.18788683  0.65570491  0.21119957    -0.75100
O104        O  0.18725478  0.65177658  0.29924544    -0.75100
O105        O  0.13267154  0.65460391  0.25482313    -0.75100
O106        O  0.24245964  0.65228293  0.25522629    -0.75100
Ni107      Ni  0.18852367  0.71984669  0.25697139     1.25400
Ni108      Ni  0.18752675  0.65130857  0.25512009     1.25400
C109        C  0.26089071  0.68391479  0.25619517     0.87100
C110        C  0.11499360  0.68693830  0.25450990     0.87100
C111        C  0.18712465  0.68321194  0.31459602     0.87100
C112        C  0.18921084  0.68829092  0.19749286     0.87300
O113        O  0.65509248  0.24369741  0.49467534    -0.75000
O114        O  0.65377204  0.13184100  0.99509410    -0.75100
O115        O  0.65312465  0.18659806  0.03914072    -0.75100
O116        O  0.65783314  0.18853471  0.45067000    -0.75200
O117        O  0.72180757  0.19070328  0.45149323    -0.75100
O118        O  0.71715384  0.18594870  0.03945156    -0.75100
O119        O  0.72256239  0.13514138  0.49501809    -0.75100
O120        O  0.71730222  0.24179783  0.99599393    -0.75100
Ni121      Ni  0.65123775  0.18680034  0.99505227     1.25400
Ni122      Ni  0.71985183  0.18672535  0.99548400     1.25400
C123        C  0.68513501  0.25977285  0.99582847     0.87100
C124        C  0.68582810  0.11363695  0.99543707     0.87100
C125        C  0.68507915  0.18553112  0.05379796     0.87100
C126        C  0.69010102  0.18897410  0.43658838     0.87300
O127        O  0.65581482  0.24355222  0.24581051    -0.75000
O128        O  0.65825596  0.13380389  0.24619993    -0.75100
O129        O  0.65851112  0.18893709  0.28980793    -0.75100
O130        O  0.65553951  0.18845034  0.20188458    -0.75200
O131        O  0.71954176  0.18841524  0.20058671    -0.75100
O132        O  0.72248773  0.19078362  0.28866813    -0.75100
O133        O  0.72220418  0.13455564  0.24573482    -0.75100
O134        O  0.71988613  0.24458654  0.24381868    -0.75100
Ni135      Ni  0.65477111  0.18862827  0.24591556     1.25400
Ni136      Ni  0.72334587  0.18960569  0.24459696     1.25400
C137        C  0.68744881  0.26199115  0.24494613     0.87100
C138        C  0.69053201  0.11603373  0.24682297     0.87100
C139        C  0.69091931  0.19034681  0.30373215     0.87100
C140        C  0.68701897  0.18860551  0.18672446     0.87300
O141        O  0.71968127  0.82116302  0.49737537    -0.75000
O142        O  0.72007146  0.92958933  0.99509594    -0.75100
O143        O  0.72050973  0.87598175  0.04026112    -0.75100
O144        O  0.72132954  0.87439784  0.45210372    -0.75200
O145        O  0.65733725  0.87738622  0.45226185    -0.75100
O146        O  0.65650753  0.87529944  0.04004231    -0.75100
O147        O  0.65955394  0.93345402  0.49526556    -0.75100
O148        O  0.65771620  0.81912707  0.99677391    -0.75100
Ni149      Ni  0.72319677  0.87466453  0.99630630     1.25400
Ni150      Ni  0.65459090  0.87415154  0.99588397     1.25400
C151        C  0.69004406  0.80144537  0.99737620     0.87100
C152        C  0.68785398  0.94749801  0.99436187     0.87100
C153        C  0.68849532  0.87551307  0.05469194     0.87100
C154        C  0.68924038  0.87514316  0.43770600     0.87300
O155        O  0.71956285  0.82070206  0.24658402    -0.75000
O156        O  0.72261601  0.93045804  0.24648268    -0.75100
O157        O  0.72119322  0.87565920  0.29048544    -0.75100
O158        O  0.72062029  0.87579092  0.20233749    -0.75200
O159        O  0.65663073  0.87760667  0.20249170    -0.75100
O160        O  0.65719117  0.87836521  0.29048087    -0.75100
O161        O  0.65868210  0.93269035  0.24615034    -0.75100
O162        O  0.65546195  0.82262806  0.24700585    -0.75100
Ni163      Ni  0.72327128  0.87551902  0.24643769     1.25400
Ni164      Ni  0.65469548  0.87782630  0.24651912     1.25400
C165        C  0.68711205  0.80370988  0.24717834     0.87100
C166        C  0.69122134  0.94973196  0.24604326     0.87100
C167        C  0.68923381  0.87756204  0.30496660     0.87100
C168        C  0.68851783  0.87744967  0.18788121     0.87300
O169        O  0.37226031  0.31854650  0.02421157    -0.75000
O170        O  0.37147246  0.42842940  0.02730433    -0.75100
O171        O  0.31692693  0.37340146  0.02652423    -0.75100
O172        O  0.42666342  0.37379807  0.02503071    -0.75200
O173        O  0.42360379  0.37369124  0.47178999    -0.75100
O174        O  0.31353968  0.37651641  0.47403952    -0.75100
O175        O  0.36982650  0.42994004  0.47529933    -0.75100
O176        O  0.36739661  0.31990506  0.47056200    -0.75100
Ni177      Ni  0.37185103  0.37341554  0.02758496     1.25400
Ni178      Ni  0.36852108  0.37508354  0.47105907     1.25400
C179        C  0.37147933  0.30165623  0.99807261     0.87100
C180        C  0.37130658  0.44765067  0.00219060     0.87100
C181        C  0.29835206  0.37507792  0.00114791     0.87100
C182        C  0.44423681  0.37535177  0.99922925     0.87300
O183        O  0.37002265  0.31403764  0.27485308    -0.75000
O184        O  0.37381423  0.42394877  0.27794916    -0.75100
O185        O  0.31683133  0.37130912  0.27785882    -0.75100
O186        O  0.42679601  0.36682380  0.27498985    -0.75200
O187        O  0.42468046  0.36811828  0.22379845    -0.75100
O188        O  0.31493197  0.37432246  0.22656523    -0.75100
O189        O  0.37256124  0.42596927  0.22673189    -0.75100
O190        O  0.36704639  0.31630428  0.22356294    -0.75100
Ni191      Ni  0.37192660  0.36891971  0.27825845     1.25400
Ni192      Ni  0.36972459  0.37124957  0.22334807     1.25400
C193        C  0.36793455  0.29724578  0.24870347     0.87100
C194        C  0.37412894  0.44309539  0.25279594     0.87100
C195        C  0.29795285  0.37390230  0.25263475     0.87100
C196        C  0.44391774  0.36641732  0.24893652     0.87300
O197        O  0.32329900  0.68613045  0.03041286    -0.75000
O198        O  0.43320970  0.68677807  0.02950509    -0.75100
O199        O  0.37751717  0.74160026  0.02974525    -0.75100
O200        O  0.37889759  0.63151152  0.03026911    -0.75200
O201        O  0.37337657  0.62988881  0.47848931    -0.75100
O202        O  0.36868176  0.73978825  0.47666252    -0.75100
O203        O  0.42599862  0.68681812  0.47703054    -0.75100
O204        O  0.31594888  0.68289589  0.47811015    -0.75100
Ni205      Ni  0.37827225  0.68654439  0.03183080     1.25400
Ni206      Ni  0.37094600  0.68478437  0.47573559     1.25400
C207        C  0.30508553  0.68554039  0.00482413     0.87100
C208        C  0.45101882  0.68679895  0.00376090     0.87100
C209        C  0.37656634  0.75936077  0.00397171     0.87100
C210        C  0.37944483  0.61328565  0.00466631     0.87300
O211        O  0.37280097  0.73718254  0.22571830    -0.75000
O212        O  0.37471449  0.62740380  0.22695031    -0.75100
O213        O  0.31907015  0.68183689  0.22846355    -0.75100
O214        O  0.42904447  0.68296342  0.22461263    -0.75200
O215        O  0.43178817  0.68246028  0.27579363    -0.75100
O216        O  0.32203771  0.68360471  0.27977780    -0.75100
O217        O  0.37651422  0.62786239  0.27817868    -0.75100
O218        O  0.37690115  0.73787348  0.27698787    -0.75100
Ni219      Ni  0.37389036  0.68226588  0.22459363     1.25400
Ni220      Ni  0.37700071  0.68294935  0.27951395     1.25400
C221        C  0.37415593  0.75543526  0.25120896     0.87100
C222        C  0.37485093  0.60947764  0.25266013     0.87100
C223        C  0.30265208  0.68301998  0.25477539     0.87100
C224        C  0.44859948  0.68311112  0.24962015     0.87300
O225        O  0.68508662  0.32304084  0.47054655    -0.75000
O226        O  0.67903134  0.43311662  0.47242294    -0.75100
O227        O  0.73700756  0.38082399  0.47246770    -0.75100
O228        O  0.62714159  0.37530802  0.47042807    -0.75200
O229        O  0.62814573  0.37313567  0.02376404    -0.75100
O230        O  0.73818026  0.37426258  0.02464273    -0.75100
O231        O  0.68225715  0.42863866  0.02576038    -0.75100
O232        O  0.68403038  0.31865784  0.02286687    -0.75100
Ni233      Ni  0.68211368  0.37813142  0.46961706     1.25400
Ni234      Ni  0.68315148  0.37357943  0.02610635     1.25400
C235        C  0.68479717  0.30168011  0.99675772     0.87100
C236        C  0.68140928  0.44771500  0.00057389     0.87100
C237        C  0.75629600  0.37600546  0.99909199     0.87100
C238        C  0.61031337  0.37348501  0.99792997     0.87300
O239        O  0.68677975  0.32272525  0.22067328    -0.75000
O240        O  0.68202604  0.43254027  0.22381411    -0.75100
O241        O  0.73912769  0.37982226  0.22344528    -0.75100
O242        O  0.62936463  0.37537526  0.22098852    -0.75200
O243        O  0.62772644  0.37376097  0.27214180    -0.75100
O244        O  0.73766104  0.37726305  0.27476929    -0.75100
O245        O  0.68090700  0.43055347  0.27503986    -0.75100
O246        O  0.68466665  0.32065776  0.27199345    -0.75100
Ni247      Ni  0.68434636  0.37771946  0.22040715     1.25400
Ni248      Ni  0.68265299  0.37548988  0.27532638     1.25400
C249        C  0.68638680  0.30378150  0.24587621     0.87100
C250        C  0.68098863  0.44970259  0.24987873     0.87100
C251        C  0.75629338  0.37927390  0.24948563     0.87100
C252        C  0.61031773  0.37375459  0.24611044     0.87300
O253        O  0.69088042  0.74235202  0.02411348    -0.75000
O254        O  0.68955439  0.63239684  0.02615816    -0.75100
O255        O  0.74531632  0.68631942  0.02489498    -0.75100
O256        O  0.63542188  0.68830569  0.02540723    -0.75200
O257        O  0.62829883  0.69126377  0.47432779    -0.75100
O258        O  0.73844223  0.68771011  0.47385833    -0.75100
O259        O  0.68187870  0.63447404  0.47468309    -0.75100
O260        O  0.68492240  0.74428194  0.47325025    -0.75100
Ni261      Ni  0.69035144  0.68740002  0.02695965     1.25400
Ni262      Ni  0.68335043  0.68938046  0.47220358     1.25400
C263        C  0.69061832  0.75956943  0.99810899     0.87100
C264        C  0.68870756  0.61351087  0.00088179     0.87100
C265        C  0.76303362  0.68507135  0.99915842     0.87100
C266        C  0.61693921  0.68843292  0.99989974     0.87300
O267        O  0.68693026  0.74482315  0.27435938    -0.75000
O268        O  0.68980253  0.63468564  0.27707426    -0.75100
O269        O  0.74346113  0.69088361  0.27539208    -0.75100
O270        O  0.63337890  0.68836598  0.27606609    -0.75200
O271        O  0.63291525  0.68692823  0.22480613    -0.75100
O272        O  0.74288282  0.68870784  0.22405416    -0.75100
O273        O  0.68898329  0.63310546  0.22583115    -0.75100
O274        O  0.68669480  0.74290042  0.22301257    -0.75100
Ni275      Ni  0.68842953  0.68982497  0.27757848     1.25400
Ni276      Ni  0.68785572  0.68788738  0.22262022     1.25400
C277        C  0.68653438  0.76182067  0.24823564     0.87100
C278        C  0.68962632  0.61572767  0.25180399     0.87100
C279        C  0.76114148  0.68990290  0.24960649     0.87100
C280        C  0.61502200  0.68660308  0.25052601     0.87300
O281        O  0.23781067  0.40952881  0.50096250    -0.75000
O282        O  0.12903777  0.41022438  0.00328788    -0.75100
O283        O  0.18512441  0.41135153  0.04657295    -0.75100
O284        O  0.18149401  0.41153204  0.45810438    -0.75200
O285        O  0.17987105  0.34751271  0.45856068    -0.75100
O286        O  0.18561989  0.34726534  0.04840973    -0.75100
O287        O  0.12558978  0.35025157  0.50300704    -0.75100
O288        O  0.23826968  0.34409252  0.00302837    -0.75100
Ni289      Ni  0.18403881  0.41153314  0.00252496     1.25400
Ni290      Ni  0.18333682  0.34292678  0.00447601     1.25400
C291        C  0.25654836  0.37582469  0.00190623     0.87100
C292        C  0.11047702  0.37859473  0.00444225     0.87100
C293        C  0.18630709  0.37997900  0.06189519     0.87100
C294        C  0.18099013  0.37933005  0.44383570     0.87300
O295        O  0.23936294  0.40888239  0.25326641    -0.75000
O296        O  0.12922104  0.41380936  0.25227654    -0.75100
O297        O  0.18334159  0.41112900  0.29671640    -0.75100
O298        O  0.18471494  0.41190060  0.20881692    -0.75200
O299        O  0.18355989  0.34778700  0.20835553    -0.75100
O300        O  0.18071190  0.34713525  0.29643208    -0.75100
O301        O  0.12724913  0.34982696  0.25145830    -0.75100
O302        O  0.23694444  0.34479353  0.25346490    -0.75100
Ni303      Ni  0.18432978  0.41372474  0.25278014     1.25400
Ni304      Ni  0.18203192  0.34510464  0.25239768     1.25400
C305        C  0.25610112  0.37600848  0.25339560     0.87100
C306        C  0.11010685  0.38246356  0.25222354     0.87100
C307        C  0.18099397  0.37910926  0.31103789     0.87100
C308        C  0.18427440  0.38001487  0.19416983     0.87300
O309        O  0.81483057  0.34987565  0.49968853    -0.75000
O310        O  0.92664070  0.34669636  0.00303073    -0.75100
O311        O  0.87009528  0.34779744  0.04543464    -0.75100
O312        O  0.87018561  0.35117609  0.45636445    -0.75200
O313        O  0.86920189  0.41516684  0.45663817    -0.75100
O314        O  0.86885934  0.41179343  0.04378516    -0.75100
O315        O  0.92347256  0.41572027  0.50159192    -0.75100
O316        O  0.81542265  0.40909909  0.99868385    -0.75100
Ni317      Ni  0.87168439  0.34363400  0.00155070     1.25400
Ni318      Ni  0.87039843  0.41221371  0.99984226     1.25400
C319        C  0.79813467  0.37675714  0.99936186     0.87100
C320        C  0.94417609  0.37895037  0.00320805     0.87100
C321        C  0.86863283  0.38040652  0.05908672     0.87100
C322        C  0.86920326  0.38328233  0.44196248     0.87300
O323        O  0.81709523  0.34916305  0.25020178    -0.75000
O324        O  0.92680355  0.35251628  0.25014994    -0.75100
O325        O  0.87207712  0.35054232  0.29410985    -0.75100
O326        O  0.87185466  0.35121541  0.20634533    -0.75200
O327        O  0.86968351  0.41521714  0.20634028    -0.75100
O328        O  0.87024599  0.41450693  0.29445212    -0.75100
O329        O  0.92487723  0.41651904  0.25018466    -0.75100
O330        O  0.81485915  0.41328757  0.25045343    -0.75100
Ni331      Ni  0.87201650  0.34861163  0.25020082     1.25400
Ni332      Ni  0.86978504  0.41720897  0.25039930     1.25400
C333        C  0.79806440  0.38067319  0.25022449     0.87100
C334        C  0.94397579  0.38496158  0.24986405     0.87100
C335        C  0.87167151  0.38237444  0.30882509     0.87100
C336        C  0.87130754  0.38319968  0.19184695     0.87300
C337        C  0.86857554  0.38328894  0.40791713    -0.06700
C338        C  0.88709153  0.35310517  0.39237949    -0.17900
C339        C  0.88942676  0.35240390  0.36028845     0.10500
C340        C  0.87210372  0.38221705  0.34288374    -0.06700
C341        C  0.85338164  0.41228648  0.35843079    -0.17900
C342        C  0.85087688  0.41286529  0.39052081     0.10500
S343        S  0.91672736  0.31368870  0.34334857    -0.32900
S344        S  0.82263236  0.45088621  0.40749061    -0.32900
H345        H  0.80467419  0.42691080  0.42912416     0.28500
H346        H  0.93561229  0.33735067  0.32201711     0.28500
H347        H  0.90099853  0.33039564  0.40536705     0.19100
H348        H  0.83935627  0.43492859  0.34545153     0.19100
C349        C  0.87209583  0.38304370  0.15789332    -0.06700
C350        C  0.85117059  0.41126175  0.14187897    -0.17900
C351        C  0.84850054  0.41064902  0.10976063     0.10500
C352        C  0.86788821  0.38158103  0.09302412    -0.06700
C353        C  0.88881492  0.35348458  0.10908684    -0.17900
C354        C  0.89181124  0.35432356  0.14107945     0.10500
S355        S  0.81812420  0.44636058  0.09184649    -0.32900
S356        S  0.92323444  0.31932517  0.15872203    -0.32900
H357        H  0.93869030  0.34515957  0.18030732     0.28500
H358        H  0.80265338  0.42110583  0.06984155     0.28500
H359        H  0.83561428  0.43321182  0.15452679     0.19100
H360        H  0.90423630  0.33135121  0.09654020     0.19100
C361        C  0.98646893  0.38547549  0.24993655    -0.06700
C362        C  0.00580220  0.35680108  0.26666578    -0.17900
C363        C  0.04583455  0.35606507  0.26874931     0.10500
C364        C  0.06764143  0.38388296  0.25292669    -0.06700
C365        C  0.04837744  0.41295393  0.23651306    -0.17900
C366        C  0.00819164  0.41378034  0.23453006     0.10500
S367        S  0.06699863  0.32013693  0.29349408    -0.32900
S368        S  0.98675877  0.45025518  0.21047780    -0.32900
H369        H  0.95886469  0.42582342  0.19772346     0.28500
H370        H  0.09523405  0.34466230  0.30561440     0.28500
H371        H  0.98960762  0.33544351  0.27900779     0.19100
H372        H  0.06468263  0.43429306  0.22424677     0.19100
C373        C  0.18160118  0.37895483  0.40987886    -0.06700
C374        C  0.16033991  0.40694485  0.39391472    -0.17900
C375        C  0.15849267  0.40694476  0.36176909     0.10500
C376        C  0.17921854  0.37893340  0.34494625    -0.11500
C377        C  0.20026792  0.35083016  0.36090696    -0.17900
C378        C  0.20221580  0.35089190  0.39302097     0.10500
S379        S  0.12763811  0.44219420  0.34379766    -0.32900
S380        S  0.23364860  0.31604358  0.41084436    -0.32900
H381        H  0.24792328  0.34154639  0.43317174     0.28500
H382        H  0.11431735  0.41742341  0.32057828     0.28500
H383        H  0.14414179  0.42834545  0.40658123     0.19100
H384        H  0.21666082  0.32956937  0.34823005     0.19100
C385        C  0.18785570  0.38154464  0.09568036    -0.06700
C386        C  0.15908373  0.40202007  0.11122523    -0.17900
C387        C  0.15692911  0.40144202  0.14332840     0.10500
C388        C  0.18451894  0.38048710  0.16036994    -0.06700
C389        C  0.21380196  0.36066147  0.14485846    -0.17900
C390        C  0.21613079  0.36152769  0.11273713     0.10500
S391        S  0.11722941  0.42631238  0.16112699    -0.32900
S392        S  0.25679977  0.33832703  0.09491190    -0.32900
H393        H  0.25993012  0.36493060  0.07075234     0.28500
H394        H  0.11172808  0.39893248  0.18444203     0.28500
H395        H  0.13728188  0.41735611  0.09822240     0.19100
H396        H  0.23558812  0.34534482  0.15788932     0.19100
C397        C  0.06792933  0.37934998  0.00408045    -0.06700
C398        C  0.04789126  0.35400344  0.02328271    -0.17900
C399        C  0.00766412  0.35428864  0.02441138     0.10500
C400        C  0.98662425  0.37960847  0.00519706    -0.06700
C401        C  0.00462973  0.41287705  0.48780807    -0.17900
C402        C  0.04482689  0.41289550  0.48656451     0.10500
S403        S  0.98502509  0.32333506  0.05213541    -0.32900
S404        S  0.06702171  0.44853323  0.46248165    -0.32900
H405        H  0.09436582  0.42304052  0.45005199     0.28500
H406        H  0.95588941  0.34978997  0.05972502     0.28500
H407        H  0.06368648  0.33460457  0.03816516     0.19100
H408        H  0.98876114  0.43444912  0.47499449     0.19100
C409        C  0.68118387  0.49222860  0.25099034    -0.06700
C410        C  0.70150757  0.51051229  0.27477724    -0.17900
C411        C  0.70575851  0.55052317  0.27540569     0.10500
C412        C  0.68846294  0.57319836  0.25212521    -0.06700
C413        C  0.66788777  0.55484922  0.22857281    -0.17900
C414        C  0.66368464  0.51499699  0.22793127     0.10500
S415        S  0.73551936  0.57036530  0.30537978    -0.32900
S416        S  0.63383619  0.49536878  0.19796449    -0.32900
H417        H  0.61642340  0.46822059  0.21732220     0.28500
H418        H  0.75323619  0.59760012  0.28624873     0.28500
H419        H  0.71555391  0.49340509  0.29236790     0.19100
H420        H  0.65384141  0.57181711  0.21088996     0.19100
C421        C  0.68071337  0.49014196  0.00163203    -0.06700
C422        C  0.70353875  0.50885123  0.02359779    -0.17900
C423        C  0.70726072  0.54886444  0.02363172     0.10500
C424        C  0.68711215  0.57106903  0.00156271    -0.06700
C425        C  0.65867167  0.55544428  0.47876982    -0.17900
C426        C  0.65577481  0.51535631  0.47816031     0.10500
S427        S  0.73998981  0.56941761  0.05121248    -0.32900
S428        S  0.62283278  0.49465677  0.45081202    -0.32900
H429        H  0.61038442  0.46513329  0.47044994     0.28500
H430        H  0.75518298  0.59665095  0.03072576     0.28500
H431        H  0.71992703  0.49207950  0.04006175     0.19100
H432        H  0.64188258  0.57221763  0.46255476     0.19100
C433        C  0.49119172  0.68356733  0.24872438    -0.06700
C434        C  0.51152884  0.66428629  0.27208480    -0.17900
C435        C  0.55171952  0.66391474  0.27288724     0.10500
C436        C  0.57255090  0.68445996  0.25042215    -0.06700
C437        C  0.55226451  0.70378182  0.22709868    -0.17900
C438        C  0.51209667  0.70342528  0.22591422     0.10500
S439        S  0.57445776  0.63509106  0.30225498    -0.32900
S440        S  0.48923783  0.73118733  0.19608577    -0.32900
H441        H  0.47561853  0.69830107  0.18082166     0.28500
H442        H  0.60341264  0.62061397  0.28284400     0.28500
H443        H  0.49598813  0.64851251  0.28951069     0.19100
H444        H  0.56781352  0.71984556  0.20985016     0.19100
C445        C  0.49347035  0.68698179  0.00326566    -0.06700
C446        C  0.50551255  0.71176224  0.48092800    -0.17900
C447        C  0.54563939  0.71456834  0.48029095     0.10500
C448        C  0.57453298  0.68913300  0.00055739    -0.06700
C449        C  0.55586301  0.66699247  0.02289810    -0.17900
C450        C  0.51581072  0.66575020  0.02451140     0.10500
S451        S  0.56628595  0.74889882  0.45414933    -0.32900
S452        S  0.49485719  0.63429368  0.05260089    -0.32900
H453        H  0.48190181  0.66508017  0.07089254     0.28500
H454        H  0.59593413  0.76024088  0.47416905     0.28500
H455        H  0.48858435  0.72927957  0.46532140     0.19100
H456        H  0.57263167  0.64995831  0.03897042     0.19100
C457        C  0.56770386  0.37095767  0.24542689    -0.06700
C458        C  0.54932652  0.35291518  0.27024941    -0.17900
C459        C  0.50939064  0.34906502  0.27127163     0.10500
C460        C  0.48651359  0.36525770  0.24763671    -0.06700
C461        C  0.50482240  0.38245964  0.22243911    -0.17900
C462        C  0.54496424  0.38517195  0.22081600     0.10500
S463        S  0.48983852  0.32140591  0.30254302    -0.32900
S464        S  0.56598006  0.40861040  0.18782694    -0.32900
H465        H  0.53220835  0.41197727  0.17020308     0.28500
H466        H  0.46217098  0.30281187  0.28426517     0.28500
H467        H  0.56633274  0.34064613  0.28877155     0.19100
H468        H  0.48746014  0.39485143  0.20422574     0.19100
C469        C  0.37522062  0.48562189  0.25346513    -0.06700
C470        C  0.35593763  0.50569626  0.23001462    -0.17900
C471        C  0.35421187  0.54579600  0.22972384     0.10500
C472        C  0.37329970  0.56695898  0.25291624    -0.06700
C473        C  0.39227096  0.54693294  0.27658495    -0.17900
C474        C  0.39378706  0.50672145  0.27697082     0.10500
S475        S  0.32519120  0.56781205  0.20010002    -0.32900
S476        S  0.42166714  0.48444164  0.30712384    -0.32900
H477        H  0.43865079  0.45677426  0.28776534     0.28500
H478        H  0.30866854  0.59540039  0.21978380     0.28500
H479        H  0.34090996  0.48998796  0.21220806     0.19100
H480        H  0.40717141  0.56271679  0.29441049     0.19100
C481        C  0.56779945  0.37358792  0.99758464    -0.06700
C482        C  0.54835767  0.39267133  0.02141439    -0.17900
C483        C  0.50829024  0.39510236  0.02187870     0.10500
C484        C  0.48666364  0.37657223  0.99870596    -0.06700
C485        C  0.50460249  0.35278675  0.47417419    -0.17900
C486        C  0.54494347  0.35177030  0.47344615     0.10500
S487        S  0.48681147  0.42420614  0.05162391    -0.32900
S488        S  0.56898293  0.32138688  0.44569538    -0.32900
H489        H  0.53583802  0.30429028  0.43336579     0.28500
H490        H  0.45862292  0.44048500  0.03229197     0.28500
H491        H  0.56456026  0.40701496  0.03932124     0.19100
H492        H  0.48833174  0.33617443  0.45768070     0.19100
C493        C  0.37261058  0.49003420  0.00325668    -0.06700
C494        C  0.39447225  0.50853800  0.48242243    -0.17900
C495        C  0.39756237  0.54856411  0.48328674     0.10500
C496        C  0.37958557  0.57084642  0.00478234    -0.06700
C497        C  0.35645619  0.55172840  0.02622742    -0.17900
C498        C  0.35239407  0.51176467  0.02549531     0.10500
S499        S  0.43131485  0.57053679  0.45737471    -0.32900
S500        S  0.31920616  0.49064572  0.05231861    -0.32900
H501        H  0.30480442  0.46332396  0.03147238     0.28500
H502        H  0.44313941  0.59906063  0.47824439     0.28500
H503        H  0.41132270  0.49255938  0.46580084     0.19100
H504        H  0.34013346  0.56817877  0.04290118     0.19100
C505        C  0.68937816  0.87820286  0.33890542    -0.06700
C506        C  0.71535976  0.85421264  0.35455083    -0.17900
C507        C  0.71516288  0.85163668  0.38664875     0.10500
C508        C  0.68901222  0.87429575  0.40377057    -0.06700
C509        C  0.66307769  0.89833474  0.38811979    -0.17900
C510        C  0.66334336  0.90097401  0.35602968     0.10500
S511        S  0.74753014  0.81736643  0.40412946    -0.32900
S512        S  0.63143252  0.93566045  0.33854903    -0.32900
H513        H  0.65768440  0.94718719  0.31584633     0.28500
H514        H  0.72166164  0.80576719  0.42709759     0.28500
H515        H  0.73511630  0.83630709  0.34162118     0.19100
H516        H  0.64339862  0.91633031  0.40104383     0.19100
C517        C  0.68851836  0.87530781  0.08875184    -0.06700
C518        C  0.66065015  0.89696621  0.10446148    -0.17900
C519        C  0.66070642  0.89937498  0.13664248     0.10500
C520        C  0.68844097  0.87856285  0.15382725    -0.06700
C521        C  0.71640539  0.85716623  0.13807537    -0.17900
C522        C  0.71650726  0.85497621  0.10596412     0.10500
S523        S  0.62623149  0.93140230  0.15413672    -0.32900
S524        S  0.75187544  0.82398198  0.08854119    -0.32900
H525        H  0.72655930  0.80868497  0.06649923     0.28500
H526        H  0.65171549  0.94520526  0.17670007     0.28500
H527        H  0.63949024  0.91325954  0.09154206     0.19100
H528        H  0.73765142  0.84088462  0.15091791     0.19100
C529        C  0.69128441  0.07352679  0.24837986    -0.06700
C530        C  0.72195590  0.05371038  0.23455428    -0.17900
C531        C  0.72262690  0.01355330  0.23301537     0.10500
C532        C  0.69220233  0.99225404  0.24605927    -0.06700
C533        C  0.66198259  0.01209838  0.26044503    -0.17900
C534        C  0.66154491  0.05216208  0.26228568     0.10500
S535        S  0.76205576  0.99172288  0.21252836    -0.32900
S536        S  0.62336328  0.07382828  0.28434705    -0.32900
H537        H  0.64726833  0.10108147  0.29851944     0.28500
H538        H  0.73881453  0.96547611  0.19648723     0.28500
H539        H  0.74491900  0.06959553  0.22383686     0.19100
H540        H  0.63901985  0.99626775  0.27121394     0.19100
C541        C  0.69085277  0.18777689  0.40263435    -0.06700
C542        C  0.71807297  0.21007598  0.38705608    -0.17900
C543        C  0.71842832  0.21213183  0.35490701     0.10500
C544        C  0.69152250  0.19067759  0.33769674    -0.06700
C545        C  0.66461099  0.16807409  0.35330354    -0.17900
C546        C  0.66438262  0.16586515  0.38538586     0.10500
S547        S  0.75229394  0.24447916  0.33749518    -0.32900
S548        S  0.63103581  0.13287558  0.40268683    -0.32900
H549        H  0.65668683  0.12010909  0.42561266     0.28500
H550        H  0.72666045  0.25801588  0.31484538     0.28500
H551        H  0.73833223  0.22717249  0.40004023     0.19100
H552        H  0.64424315  0.15105698  0.34038260     0.19100
C553        C  0.68493084  0.18440658  0.08778206    -0.06700
C554        C  0.65760159  0.20659546  0.10359390    -0.17900
C555        C  0.65810966  0.20927120  0.13571327     0.10500
C556        C  0.68595288  0.18845774  0.15272905    -0.06700
C557        C  0.71297666  0.16590078  0.13691532    -0.17900
C558        C  0.71241850  0.16317507  0.10481624     0.10500
S559        S  0.62403947  0.24164397  0.15331607    -0.32900
S560        S  0.74620830  0.13049931  0.08721315    -0.32900
H561        H  0.72059145  0.11745962  0.06446714     0.28500
H562        H  0.64991958  0.25573824  0.17545728     0.28500
H563        H  0.63662641  0.22324623  0.09078248     0.19100
H564        H  0.73399355  0.14928809  0.14971806     0.19100
C565        C  0.68609652  0.07115809  0.99591964    -0.06700
C566        C  0.71984469  0.05433547  0.47888653    -0.17900
C567        C  0.72025908  0.01413367  0.47722198     0.10500
C568        C  0.68721968  0.98996843  0.99342047    -0.06700
C569        C  0.65890879  0.00951709  0.01032665    -0.17900
C570        C  0.65840478  0.04964335  0.01216127     0.10500
S571        S  0.75499173  0.99206375  0.45200313    -0.32900
S572        S  0.62322958  0.07131448  0.03722248    -0.32900
H573        H  0.64824549  0.09938172  0.04893617     0.28500
H574        H  0.72986334  0.96370590  0.44090396     0.28500
H575        H  0.74053333  0.07041012  0.46563692     0.19100
H576        H  0.63789551  0.99339276  0.02320486     0.19100
C577        C  0.18046640  0.68223937  0.41356889    -0.06700
C578        C  0.20142240  0.65352969  0.39817356    -0.17900
C579        C  0.20483546  0.65349022  0.36610873     0.10500
C580        C  0.18607307  0.68228241  0.34863030    -0.06700
C581        C  0.16476150  0.71074758  0.36401842    -0.17900
C582        C  0.16130020  0.71074449  0.39607854     0.10500
S583        S  0.23554101  0.61735013  0.34926329    -0.32900
S584        S  0.13036185  0.74667434  0.41296394    -0.32900
H585        H  0.11489556  0.72194865  0.43529178     0.28500
H586        H  0.25218399  0.64232206  0.32767998     0.28500
H587        H  0.21658287  0.63177389  0.41127905     0.19100
H588        H  0.14970220  0.73257309  0.35091142     0.19100
C589        C  0.19340168  0.68640469  0.09811953    -0.06700
C590        C  0.18281825  0.72037809  0.11348402    -0.17900
C591        C  0.18183369  0.72250290  0.14570142     0.10500
C592        C  0.19063818  0.68929876  0.16331295    -0.06700
C593        C  0.20185549  0.65559514  0.14788187    -0.17900
C594        C  0.20430850  0.65403220  0.11585731     0.10500
S595        S  0.16790712  0.76759906  0.16325763    -0.32900
S596        S  0.22355693  0.61036634  0.09958626    -0.32900
H597        H  0.24842039  0.62956723  0.07932866     0.28500
H598        H  0.16989903  0.79039179  0.13660471     0.28500
H599        H  0.17458019  0.74532153  0.10016803     0.19100
H600        H  0.20997385  0.63031370  0.16089747     0.19100
C601        C  0.99148909  0.68735009  0.25332858    -0.06700
C602        C  0.01174709  0.71390918  0.23540818    -0.17900
C603        C  0.05190891  0.71381603  0.23470448     0.10500
C604        C  0.07262736  0.68736078  0.25307400    -0.06700
C605        C  0.05239668  0.66072453  0.27092052    -0.17900
C606        C  0.01223812  0.66069386  0.27154938     0.10500
S607        S  0.07483057  0.74643880  0.20841293    -0.32900
S608        S  0.98947466  0.62723275  0.29728681    -0.32900
H609        H  0.96021404  0.65266967  0.30657879     0.28500
H610        H  0.10362158  0.72028303  0.19939631     0.28500
H611        H  0.99615436  0.73403980  0.22097788     0.19100
H612        H  0.06801841  0.64048968  0.28523989     0.19100
C613        C  0.87135500  0.68661557  0.40740672    -0.06700
C614        C  0.89474179  0.71327016  0.39226862    -0.17900
C615        C  0.89757153  0.71374916  0.36019535     0.10500
C616        C  0.87566337  0.68768786  0.34253884    -0.06700
C617        C  0.85235999  0.66093836  0.35767866    -0.17900
C618        C  0.84957673  0.66042340  0.38976827     0.10500
S619        S  0.93128942  0.74682223  0.34347790    -0.32900
S620        S  0.81609973  0.62716003  0.40655873    -0.32900
H621        H  0.80317123  0.65263877  0.42948703     0.28500
H622        H  0.94384636  0.72156199  0.32029308     0.28500
H623        H  0.91199187  0.73307311  0.40557950     0.19100
H624        H  0.83514554  0.64110318  0.34436588     0.19100
C625        C  0.87658568  0.68790518  0.09250124    -0.06700
C626        C  0.90092341  0.66272019  0.10865179    -0.17900
C627        C  0.90302035  0.66345203  0.14080694     0.10500
C628        C  0.87943757  0.68919758  0.15751787    -0.06700
C629        C  0.85539960  0.71466579  0.14137235    -0.17900
C630        C  0.85334580  0.71394825  0.10920438     0.10500
S631        S  0.93783045  0.63229417  0.15898994    -0.32900
S632        S  0.81877521  0.74524432  0.09100838    -0.32900
H633        H  0.80768988  0.71860292  0.06837511     0.28500
H634        H  0.94790513  0.65854655  0.18222534     0.28500
H635        H  0.91935011  0.64306949  0.09606887     0.19100
H636        H  0.83692490  0.73426748  0.15395864     0.19100
C637        C  0.07476298  0.68550012  0.00551872    -0.06700
C638        C  0.04915463  0.65742633  0.48680614    -0.17900
C639        C  0.00917892  0.65861671  0.48329528     0.10500
C640        C  0.99368621  0.68488118  0.00076880    -0.06700
C641        C  0.01243937  0.71320848  0.01810512    -0.17900
C642        C  0.05247760  0.71352701  0.02100768     0.10500
S643        S  0.98836769  0.62866517  0.45387093    -0.32900
S644        S  0.07300617  0.74906150  0.04625822    -0.32900
H645        H  0.10097466  0.72420899  0.05876113     0.28500
H646        H  0.96004904  0.65543886  0.44494344     0.28500
H647        H  0.06585110  0.63834695  0.47228540     0.19100
H648        H  0.99568399  0.73452085  0.03043130     0.19100
C649        C  0.36200557  0.17997094  0.40462305    -0.06700
C650        C  0.33802687  0.20593251  0.38894498    -0.17900
C651        C  0.33816480  0.20817353  0.35683134     0.10500
C652        C  0.36202228  0.18312701  0.33974360    -0.06700
C653        C  0.38567866  0.15681195  0.35542407    -0.17900
C654        C  0.38554491  0.15460307  0.38756775     0.10500
S655        S  0.30917315  0.24525646  0.33926248    -0.32900
S656        S  0.41448455  0.11759410  0.40530997    -0.32900
H657        H  0.38860028  0.11005169  0.42934117     0.28500
H658        H  0.33602151  0.25429489  0.31628793     0.28500
H659        H  0.32018434  0.22576441  0.40186848     0.19100
H660        H  0.40361982  0.13707695  0.34249835     0.19100
C661        C  0.36909343  0.18817986  0.08974072    -0.06700
C662        C  0.34254070  0.16419480  0.10429558    -0.17900
C663        C  0.34145490  0.16099222  0.13630611     0.10500
C664        C  0.36659551  0.18304715  0.15461758    -0.06700
C665        C  0.39307291  0.20726264  0.14007175    -0.17900
C666        C  0.39429378  0.21041600  0.10795297     0.10500
S667        S  0.30986945  0.12568843  0.15225430    -0.32900
S668        S  0.42714266  0.24476073  0.09179508    -0.32900
H669        H  0.40244052  0.25645005  0.06787606     0.28500
H670        H  0.33844539  0.11131559  0.17216471     0.28500
H671        H  0.32354024  0.14652801  0.09057805     0.19100
H672        H  0.41219184  0.22471602  0.15384820     0.19100
C673        C  0.36306191  0.98555136  0.25596619    -0.06700
C674        C  0.32951236  0.00400381  0.24552480    -0.17900
C675        C  0.32716847  0.04402908  0.24301677     0.10500
C676        C  0.35963570  0.06675535  0.25044100    -0.06700
C677        C  0.39262290  0.04819789  0.26196880    -0.17900
C678        C  0.39428385  0.00839438  0.26569587     0.10500
S679        S  0.28172291  0.06325926  0.23023303    -0.32900
S680        S  0.43622792  0.98924471  0.28479849    -0.32900
H681        H  0.41528895  0.96360885  0.30326404     0.28500
H682        H  0.29782172  0.08899496  0.20939499     0.28500
H683        H  0.30496407  0.98710417  0.23857525     0.19100
H684        H  0.41712181  0.06494742  0.26926560     0.19100
C685        C  0.36373911  0.87225737  0.40926625    -0.06700
C686        C  0.37855284  0.83972215  0.39433067    -0.17900
C687        C  0.37778985  0.83678901  0.36225512     0.10500
C688        C  0.36264077  0.86736806  0.34466536    -0.06700
C689        C  0.34742375  0.89972027  0.35958252    -0.17900
C690        C  0.34816790  0.90267597  0.39168016     0.10500
S691        S  0.39549476  0.79306039  0.34506064    -0.32900
S692        S  0.33056500  0.94655971  0.40875837    -0.32900
H693        H  0.35683194  0.94692140  0.43335155     0.28500
H694        H  0.36918279  0.79329114  0.32051073     0.28500
H695        H  0.39013273  0.81606704  0.40783040     0.19100
H696        H  0.33614529  0.92348955  0.34604778     0.19100
C697        C  0.37392868  0.87573952  0.16036674    -0.06700
C698        C  0.40118909  0.85306407  0.14493502    -0.17900
C699        C  0.40225920  0.85158258  0.11277851     0.10500
C700        C  0.37621624  0.87418569  0.09542959    -0.06700
C701        C  0.34936211  0.89731997  0.11089851    -0.17900
C702        C  0.34823946  0.89872947  0.14303130     0.10500
S703        S  0.43566844  0.81830881  0.09545337    -0.32900
S704        S  0.31461396  0.93176473  0.16042383    -0.32900
H705        H  0.33896231  0.94226955  0.18485002     0.28500
H706        H  0.41021840  0.80605542  0.07231388     0.28500
H707        H  0.42076364  0.83504537  0.15804174     0.19100
H708        H  0.32962989  0.91519672  0.09781874     0.19100
C709        C  0.37440661  0.98988047  0.00206468    -0.06700
C710        C  0.33317041  0.00811099  0.48771761    -0.17900
C711        C  0.33156078  0.04826984  0.48666418     0.10500
C712        C  0.37296407  0.07102428  0.99831780    -0.06700
C713        C  0.39853821  0.05216062  0.01834137    -0.17900
C714        C  0.39909576  0.01202877  0.02077499     0.10500
S715        S  0.29344084  0.06977445  0.46448346    -0.32900
S716        S  0.43053276  0.99102824  0.04926153    -0.32900
H717        H  0.40502739  0.96175894  0.05788538     0.28500
H718        H  0.27538695  0.08509778  0.49072884     0.28500
H719        H  0.31144699  0.99179028  0.47564041     0.19100
H720        H  0.41738908  0.06884811  0.03291877     0.19100
O721        O  0.40790436  0.81930082  0.00302305    -0.75000
O722        O  0.39631959  0.92873838  0.50102180    -0.75100
O723        O  0.39896511  0.87393850  0.54498053    -0.75100
O724        O  0.40643562  0.87367868  0.95857517    -0.75200
O725        O  0.34260483  0.87322687  0.95924481    -0.75100
O726        O  0.33501179  0.87214340  0.54606668    -0.75100
O727        O  0.34294021  0.92926244  0.00235495    -0.75100
O728        O  0.33518585  0.81753869  0.50159679    -0.75100
Ni729      Ni  0.40009093  0.87376524  0.50098178     1.25400
Ni730      Ni  0.33148259  0.87257713  0.50201239     1.25400
C731        C  0.36770860  0.80019938  0.50153134     0.87100
C732        C  0.37484365  0.94741890  0.00244227     0.87100
C733        C  0.36745148  0.87269384  0.56005321     0.87100
C734        C  0.37417977  0.87275761  0.94426820     0.87300
O735        O  0.40764041  0.81973347  0.74981515    -0.75000
O736        O  0.40263967  0.92956624  0.75214471    -0.75100
O737        O  0.40683339  0.87334591  0.79488948    -0.75100
O738        O  0.40329350  0.87609078  0.70693497    -0.75200
O739        O  0.33935832  0.87424819  0.70840214    -0.75100
O740        O  0.34314071  0.87056371  0.79645437    -0.75100
O741        O  0.33881242  0.92729838  0.75410065    -0.75100
O742        O  0.34360553  0.81733288  0.75094506    -0.75100
Ni743      Ni  0.40735396  0.87476195  0.75086503     1.25400
Ni744      Ni  0.33893177  0.87223876  0.75249780     1.25400
C745        C  0.37640979  0.80058243  0.75012826     0.87100
C746        C  0.37003797  0.94661018  0.75397884     0.87100
C747        C  0.37565502  0.87172859  0.81033223     0.87100
C748        C  0.37073958  0.87597321  0.69314587     0.87300
O749        O  0.33979347  0.24180434  0.99671696    -0.75000
O750        O  0.33046493  0.13223079  0.49934896    -0.75100
O751        O  0.33335385  0.19000287  0.54117000    -0.75100
O752        O  0.34143341  0.18696112  0.95265427    -0.75200
O753        O  0.40546833  0.18574703  0.95389972    -0.75100
O754        O  0.39724212  0.18737088  0.54061792    -0.75100
O755        O  0.40458055  0.13168513  0.99882532    -0.75100
O756        O  0.39834490  0.23930862  0.49434142    -0.75100
Ni757      Ni  0.33009572  0.18725892  0.49724721     1.25400
Ni758      Ni  0.39861633  0.18422885  0.49659674     1.25400
C759        C  0.36694307  0.25861195  0.49449149     0.87100
C760        C  0.36170902  0.11265982  0.49973934     0.87100
C761        C  0.36558853  0.18994123  0.55545597     0.87100
C762        C  0.37382632  0.18610195  0.93879251     0.87300
O763        O  0.33887365  0.24245831  0.74747102    -0.75000
O764        O  0.33518137  0.13267306  0.74961548    -0.75100
O765        O  0.33925227  0.18908915  0.79242305    -0.75100
O766        O  0.33515469  0.18671864  0.70441170    -0.75200
O767        O  0.39898312  0.18405748  0.70268168    -0.75100
O768        O  0.40320184  0.18601799  0.79071387    -0.75100
O769        O  0.39899293  0.12999090  0.74772414    -0.75100
O770        O  0.40294288  0.23989521  0.74590124    -0.75100
Ni771      Ni  0.33484256  0.18774394  0.74850473     1.25400
Ni772      Ni  0.40331638  0.18484914  0.74664759     1.25400
C773        C  0.37149108  0.25906999  0.74658368     0.87100
C774        C  0.36641811  0.11310403  0.74920013     0.87100
C775        C  0.37191647  0.18844353  0.80603916     0.87100
C776        C  0.36639478  0.18531606  0.68893999     0.87300
O777        O  0.82307768  0.65267804  0.00029822    -0.75000
O778        O  0.92611598  0.65324182  0.49978671    -0.75100
O779        O  0.87125755  0.65431305  0.54380560    -0.75100
O780        O  0.87865030  0.65091842  0.95666023    -0.75200
O781        O  0.87881536  0.71487794  0.95512175    -0.75100
O782        O  0.87127260  0.71836466  0.54384300    -0.75100
O783        O  0.93285876  0.71668698  0.99997993    -0.75100
O784        O  0.81689436  0.71930972  0.49928510    -0.75100
Ni785      Ni  0.87106651  0.65196915  0.49979233     1.25400
Ni786      Ni  0.87197904  0.72061089  0.49990564     1.25400
C787        C  0.79853352  0.68755248  0.49944678     0.87100
C788        C  0.95118481  0.68467490  0.00039283     0.87100
C789        C  0.87101374  0.68635514  0.55831651     0.87100
C790        C  0.87877029  0.68232279  0.94132971     0.87300
O791        O  0.82436714  0.65320824  0.74962996    -0.75000
O792        O  0.93429685  0.65148820  0.74867218    -0.75100
O793        O  0.88037897  0.65148237  0.79319518    -0.75100
O794        O  0.87862345  0.65315497  0.70521652    -0.75200
O795        O  0.87895754  0.71718739  0.70583787    -0.75100
O796        O  0.88117215  0.71546457  0.79392865    -0.75100
O797        O  0.93496421  0.71538987  0.74927157    -0.75100
O798        O  0.82499006  0.71733337  0.75053542    -0.75100
Ni799      Ni  0.87934325  0.65006554  0.74914868     1.25400
Ni800      Ni  0.88001545  0.71864133  0.74991885     1.25400
C801        C  0.80672298  0.68555042  0.75005317     0.87100
C802        C  0.95285699  0.68310432  0.74897225     0.87100
C803        C  0.88177655  0.68320026  0.80809840     0.87100
C804        C  0.87878982  0.68536860  0.69101820     0.87300
O805        O  0.24519365  0.71752436  0.00452909    -0.75000
O806        O  0.12819793  0.71418605  0.50769023    -0.75100
O807        O  0.18521205  0.71455564  0.55014952    -0.75100
O808        O  0.18910693  0.71722426  0.96130407    -0.75200
O809        O  0.19064010  0.65315064  0.96147034    -0.75100
O810        O  0.18597308  0.65049919  0.55011077    -0.75100
O811        O  0.13555078  0.65358289  0.00533702    -0.75100
O812        O  0.23902689  0.65083058  0.50480844    -0.75100
Ni813      Ni  0.18312508  0.71682191  0.50619081     1.25400
Ni814      Ni  0.18403830  0.64818025  0.50608281     1.25400
C815        C  0.25652624  0.68305908  0.50444608     0.87100
C816        C  0.11044527  0.68206316  0.50778635     0.87100
C817        C  0.18681544  0.68253198  0.56460074     0.87100
C818        C  0.18949264  0.68511594  0.94692055     0.87300
O819        O  0.24674468  0.71699907  0.75524752    -0.75000
O820        O  0.13705767  0.71678604  0.75590630    -0.75100
O821        O  0.19236335  0.71716377  0.79973369    -0.75100
O822        O  0.19115376  0.71634833  0.71172034    -0.75200
O823        O  0.19130269  0.65228508  0.71199657    -0.75100
O824        O  0.19367334  0.65308758  0.79997145    -0.75100
O825        O  0.13746445  0.65281307  0.75669730    -0.75100
O826        O  0.24737838  0.65282961  0.75510431    -0.75100
Ni827      Ni  0.19185640  0.71910140  0.75568307     1.25400
Ni828      Ni  0.19247219  0.65044615  0.75599623     1.25400
C829        C  0.26494428  0.68500708  0.75474037     0.87100
C830        C  0.11909454  0.68483783  0.75638394     0.87100
C831        C  0.19351124  0.68521555  0.81432295     0.87100
C832        C  0.19039713  0.68421101  0.69738633     0.87300
O833        O  0.65318499  0.24181109  0.99520018    -0.75000
O834        O  0.65855605  0.13385987  0.49473440    -0.75100
O835        O  0.65602050  0.18844800  0.53870085    -0.75100
O836        O  0.65402851  0.18672303  0.95100174    -0.75200
O837        O  0.71804349  0.18722881  0.95145605    -0.75100
O838        O  0.72004917  0.18914415  0.53952188    -0.75100
O839        O  0.71778582  0.13170116  0.99505422    -0.75100
O840        O  0.71916193  0.24532617  0.49600893    -0.75100
Ni841      Ni  0.65460428  0.18866476  0.49463136     1.25400
Ni842      Ni  0.72319438  0.19024295  0.49553000     1.25400
C843        C  0.68653991  0.26249503  0.49543336     0.87100
C844        C  0.69100496  0.11639492  0.49530526     0.87100
C845        C  0.68780585  0.18769403  0.55359045     0.87100
C846        C  0.68617768  0.18649501  0.93671063     0.87300
O847        O  0.65594416  0.24070934  0.74532661    -0.75000
O848        O  0.65561646  0.13101462  0.74546351    -0.75100
O849        O  0.65634280  0.18611570  0.78932624    -0.75100
O850        O  0.65515436  0.18581723  0.70135337    -0.75200
O851        O  0.71916232  0.18432880  0.70084530    -0.75100
O852        O  0.72036679  0.18651416  0.78903360    -0.75100
O853        O  0.71957326  0.13044235  0.74584884    -0.75100
O854        O  0.72008557  0.24017517  0.74418953    -0.75100
Ni855      Ni  0.65349457  0.18588970  0.74536329     1.25400
Ni856      Ni  0.72211041  0.18529007  0.74493631     1.25400
C857        C  0.68806207  0.25830528  0.74480297     0.87100
C858        C  0.68750924  0.11258834  0.74613759     0.87100
C859        C  0.68847972  0.18701017  0.80368881     0.87100
C860        C  0.68691968  0.18547774  0.68657651     0.87300
O861        O  0.72183560  0.81967017  0.99739419    -0.75000
O862        O  0.72353995  0.93113442  0.49460343    -0.75100
O863        O  0.72209609  0.87761089  0.53992420    -0.75100
O864        O  0.72136345  0.87317858  0.95233409    -0.75200
O865        O  0.65733717  0.87306403  0.95179192    -0.75100
O866        O  0.65810406  0.87982848  0.54039509    -0.75100
O867        O  0.65606511  0.92916394  0.99496051    -0.75100
O868        O  0.65558266  0.82378023  0.49742998    -0.75100
Ni869      Ni  0.72394883  0.87603232  0.49599951     1.25400
Ni870      Ni  0.65535615  0.87875017  0.49633545     1.25400
C871        C  0.68698010  0.80456007  0.49789090     0.87100
C872        C  0.69207747  0.95039559  0.49434722     0.87100
C873        C  0.69031555  0.87832419  0.55466534     0.87100
C874        C  0.68953744  0.87242678  0.93755650     0.87300
O875        O  0.72325576  0.81854535  0.74612591    -0.75000
O876        O  0.72275218  0.92837265  0.74613182    -0.75100
O877        O  0.72299697  0.87348910  0.79022316    -0.75100
O878        O  0.72300442  0.87382666  0.70207237    -0.75200
O879        O  0.65896309  0.87388478  0.70199349    -0.75100
O880        O  0.65896542  0.87404999  0.78995865    -0.75100
O881        O  0.65877593  0.92848354  0.74566748    -0.75100
O882        O  0.65911219  0.81874183  0.74618108    -0.75100
Ni883      Ni  0.72531358  0.87347770  0.74614961     1.25400
Ni884      Ni  0.65668413  0.87368992  0.74596332     1.25400
C885        C  0.69122827  0.80073495  0.74633141     0.87100
C886        C  0.69069751  0.94654376  0.74533681     0.87100
C887        C  0.69091694  0.87435604  0.80459783     0.87100
C888        C  0.69094446  0.87493447  0.68755726     0.87300
O889        O  0.36981164  0.31690705  0.52184723    -0.75000
O890        O  0.37041398  0.42663176  0.52652628    -0.75100
O891        O  0.31518904  0.37234291  0.52529183    -0.75100
O892        O  0.42502611  0.37138101  0.52304266    -0.75200
O893        O  0.42559817  0.37547998  0.97377770    -0.75100
O894        O  0.31562206  0.37626770  0.97520837    -0.75100
O895        O  0.37098292  0.43067400  0.97603468    -0.75100
O896        O  0.37048623  0.32066667  0.97288217    -0.75100
Ni897      Ni  0.37018550  0.37163155  0.52597799     1.25400
Ni898      Ni  0.37059418  0.37579559  0.97262066     1.25400
C899        C  0.36828835  0.30046664  0.49555504     0.87100
C900        C  0.37019793  0.44638956  0.50169122     0.87100
C901        C  0.29642550  0.37501087  0.50004823     0.87100
C902        C  0.44241937  0.37297599  0.49714869     0.87300
O903        O  0.37460418  0.31803435  0.77298115    -0.75000
O904        O  0.37866469  0.42772662  0.77480911    -0.75100
O905        O  0.32159496  0.37520486  0.77605005    -0.75100
O906        O  0.43146709  0.37035964  0.77171046    -0.75200
O907        O  0.42847061  0.37222735  0.72048793    -0.75100
O908        O  0.31854660  0.37635163  0.72474448    -0.75100
O909        O  0.37532567  0.42917493  0.72361312    -0.75100
O910        O  0.37179528  0.31935229  0.72164802    -0.75100
Ni911      Ni  0.37668534  0.37280437  0.77571487     1.25400
Ni912      Ni  0.37339959  0.37434390  0.72078484     1.25400
C913        C  0.37276230  0.30080167  0.74704058     0.87100
C914        C  0.37789706  0.44655272  0.74951617     0.87100
C915        C  0.30211327  0.37647684  0.75106281     0.87100
C916        C  0.44805444  0.37013474  0.74542599     0.87300
O917        O  0.31678540  0.68491208  0.52945594    -0.75000
O918        O  0.42670189  0.68686149  0.52830337    -0.75100
O919        O  0.37034671  0.74095837  0.52801490    -0.75100
O920        O  0.37314078  0.63089265  0.52977997    -0.75200
O921        O  0.37894702  0.63128124  0.97896855    -0.75100
O922        O  0.37636416  0.74121162  0.97837673    -0.75100
O923        O  0.43256430  0.68715631  0.97824372    -0.75100
O924        O  0.32270167  0.68531489  0.97903216    -0.75100
Ni925      Ni  0.37177375  0.68597058  0.53072034     1.25400
Ni926      Ni  0.37760976  0.68622478  0.97682854     1.25400
C927        C  0.29841440  0.68353065  0.50395993     0.87100
C928        C  0.44448905  0.68699480  0.50254926     0.87100
C929        C  0.36889355  0.75832125  0.50208169     0.87100
C930        C  0.37425356  0.61228591  0.50436471     0.87300
O931        O  0.37671940  0.74082531  0.72423178    -0.75000
O932        O  0.37787072  0.63087123  0.72425138    -0.75100
O933        O  0.32271491  0.68542530  0.72667984    -0.75100
O934        O  0.43245597  0.68611493  0.72184412    -0.75200
O935        O  0.43600217  0.68547501  0.77299857    -0.75100
O936        O  0.32627156  0.68564389  0.77799818    -0.75100
O937        O  0.38111494  0.63067523  0.77546439    -0.75100
O938        O  0.38074668  0.74069542  0.77551099    -0.75100
Ni939      Ni  0.37738718  0.68582011  0.72241835     1.25400
Ni940      Ni  0.38124806  0.68565625  0.77732641     1.25400
C941        C  0.37817966  0.75871278  0.74991825     0.87100
C942        C  0.37872374  0.61265452  0.74983719     0.87100
C943        C  0.30662806  0.68531563  0.75310467     0.87100
C944        C  0.45239331  0.68585498  0.74662964     0.87300
O945        O  0.68503147  0.32062494  0.97152921    -0.75000
O946        O  0.68200588  0.43059000  0.97448614    -0.75100
O947        O  0.73854820  0.37693873  0.97331032    -0.75100
O948        O  0.62878272  0.37456969  0.97253301    -0.75200
O949        O  0.62601107  0.37486084  0.52169633    -0.75100
O950        O  0.73580494  0.37876751  0.52380793    -0.75100
O951        O  0.67874918  0.43174707  0.52370374    -0.75100
O952        O  0.68322958  0.32178101  0.52187771    -0.75100
Ni953      Ni  0.68363319  0.37573548  0.97114372     1.25400
Ni954      Ni  0.68087889  0.37673310  0.52458697     1.25400
C955        C  0.68501095  0.30443965  0.49595231     0.87100
C956        C  0.67801843  0.45055964  0.49838857     0.87100
C957        C  0.75432096  0.38055408  0.49847506     0.87100
C958        C  0.60846731  0.37415063  0.49575855     0.87300
O959        O  0.68865390  0.31796432  0.71939091    -0.75000
O960        O  0.68828443  0.42758811  0.71989145    -0.75100
O961        O  0.74339394  0.37277754  0.72129175    -0.75100
O962        O  0.63321173  0.37283752  0.71824695    -0.75200
O963        O  0.63135548  0.37175311  0.76949872    -0.75100
O964        O  0.74119072  0.37343824  0.77262158    -0.75100
O965        O  0.68524345  0.42762259  0.77092410    -0.75100
O966        O  0.68724372  0.31771489  0.77077413    -0.75100
Ni967      Ni  0.68843071  0.37279336  0.71786818     1.25400
Ni968      Ni  0.68618195  0.37262392  0.77278794     1.25400
C969        C  0.68808378  0.29997390  0.74500287     0.87100
C970        C  0.68672861  0.44591313  0.74535057     0.87100
C971        C  0.76023866  0.37337642  0.74750097     0.87100
C972        C  0.61413814  0.37223685  0.74344021     0.87300
O973        O  0.68476063  0.74540819  0.52462348    -0.75000
O974        O  0.68331511  0.63524463  0.52595724    -0.75100
O975        O  0.73891457  0.68940294  0.52521548    -0.75100
O976        O  0.62896244  0.69122655  0.52563154    -0.75200
O977        O  0.63465292  0.68731428  0.97411301    -0.75100
O978        O  0.74479224  0.68453279  0.97354758    -0.75100
O979        O  0.68847565  0.63088107  0.97489047    -0.75100
O980        O  0.69053150  0.74088496  0.97274967    -0.75100
Ni981      Ni  0.68397097  0.69036588  0.52719974     1.25400
Ni982      Ni  0.68964787  0.68582971  0.97197444     1.25400
C983        C  0.68544974  0.76276564  0.49866482     0.87100
C984        C  0.68252550  0.61670977  0.50048031     0.87100
C985        C  0.75663731  0.68825441  0.49948468     0.87100
C986        C  0.61051071  0.69177010  0.50010461     0.87300
O987        O  0.69086065  0.74164351  0.77289230    -0.75000
O988        O  0.69150853  0.63173526  0.77449674    -0.75100
O989        O  0.74626943  0.68673994  0.77481154    -0.75100
O990        O  0.63630477  0.68638485  0.77272503    -0.75200
O991        O  0.63746087  0.68510043  0.72147526    -0.75100
O992        O  0.74751180  0.68579248  0.72346181    -0.75100
O993        O  0.69325559  0.63072893  0.72342018    -0.75100
O994        O  0.69196234  0.74045927  0.72152553    -0.75100
Ni995      Ni  0.69119707  0.68672713  0.77556608     1.25400
Ni996      Ni  0.69257979  0.68551761  0.72063960     1.25400
C997        C  0.69133424  0.75895916  0.74693719     0.87100
C998        C  0.69264850  0.61292681  0.74921695     0.87100
C999        C  0.76484429  0.68614066  0.74944910     0.87100
C1000       C  0.61874991  0.68495623  0.74682925     0.87300
O1001       O  0.23899401  0.40822133  0.00170166    -0.75000
O1002       O  0.12784302  0.41420790  0.50305390    -0.75100
O1003       O  0.18453331  0.41210222  0.54625374    -0.75100
O1004       O  0.18306300  0.40726979  0.95866515    -0.75200
O1005       O  0.18173899  0.34330019  0.96031239    -0.75100
O1006       O  0.18149375  0.34823979  0.54650558    -0.75100
O1007       O  0.12823828  0.34627637  0.00579794    -0.75100
O1008       O  0.23550599  0.34545245  0.50192300    -0.75100
Ni1009     Ni  0.18293815  0.41414735  0.50212982     1.25400
Ni1010     Ni  0.18046319  0.34560547  0.50253908     1.25400
C1011       C  0.25459228  0.37672587  0.50100597     0.87100
C1012       C  0.10855487  0.38297655  0.50279381     0.87100
C1013       C  0.18415467  0.38017215  0.56095072     0.87100
C1014       C  0.18273640  0.37470176  0.94495429     0.87300
O1015       O  0.24273174  0.41000148  0.75369823    -0.75000
O1016       O  0.13246767  0.41217080  0.75379181    -0.75100
O1017       O  0.18737406  0.40968484  0.79781477    -0.75100
O1018       O  0.18747591  0.41257781  0.70977187    -0.75200
O1019       O  0.18586738  0.34868707  0.70849073    -0.75100
O1020       O  0.18708768  0.34569700  0.79663748    -0.75100
O1021       O  0.13184744  0.34814404  0.75313310    -0.75100
O1022       O  0.24169374  0.34592719  0.75198004    -0.75100
Ni1023     Ni  0.18762525  0.41340158  0.75383558     1.25400
Ni1024     Ni  0.18668220  0.34484850  0.75250895     1.25400
C1025       C  0.26019540  0.37756371  0.75247705     0.87100
C1026       C  0.11403996  0.38039776  0.75393849     0.87100
C1027       C  0.18621267  0.37729853  0.81175683     0.87100
C1028       C  0.18601247  0.38113825  0.69453505     0.87300
O1029       O  0.81672362  0.34499479  0.00039960    -0.75000
O1030       O  0.92463203  0.35171103  0.50120173    -0.75100
O1031       O  0.86915315  0.35066804  0.54437541    -0.75100
O1032       O  0.87280025  0.34424218  0.95735302    -0.75200
O1033       O  0.87176528  0.40818768  0.95600840    -0.75100
O1034       O  0.86745501  0.41467603  0.54456074    -0.75100
O1035       O  0.92550359  0.41069895  0.00129869    -0.75100
O1036       O  0.81331564  0.41401309  0.49963676    -0.75100
Ni1037     Ni  0.86976683  0.34858542  0.50037314     1.25400
Ni1038     Ni  0.86832440  0.41719268  0.50059941     1.25400
C1039       C  0.79614118  0.38159420  0.49928770     0.87100
C1040       C  0.94218908  0.38391021  0.50225445     0.87100
C1041       C  0.86814783  0.38262622  0.55898582     0.87100
C1042       C  0.87174197  0.37576803  0.94211052     0.87300
O1043       O  0.82111496  0.34285141  0.74819249    -0.75000
O1044       O  0.93108025  0.34610323  0.75027657    -0.75100
O1045       O  0.87509112  0.34261945  0.79335158    -0.75100
O1046       O  0.87711598  0.34636055  0.70537855    -0.75200
O1047       O  0.87422051  0.41031698  0.70696484    -0.75100
O1048       O  0.87367680  0.40655261  0.79491790    -0.75100
O1049       O  0.92886017  0.41011186  0.75120772    -0.75100
O1050       O  0.81894288  0.40690739  0.75040370    -0.75100
Ni1051     Ni  0.87617909  0.34219459  0.74926623     1.25400
Ni1052     Ni  0.87383112  0.41074867  0.75097868     1.25400
C1053       C  0.80208765  0.37439757  0.74878810     0.87100
C1054       C  0.94808469  0.37865170  0.75062154     0.87100
C1055       C  0.87455071  0.37401484  0.80871136     0.87100
C1056       C  0.87605141  0.37890969  0.69167533     0.87300
C1057       C  0.87065977  0.37478082  0.90799637    -0.06700
C1058       C  0.88856969  0.34408946  0.89257553    -0.17900
C1059       C  0.89086019  0.34313119  0.86039857     0.10500
C1060       C  0.87416211  0.37318573  0.84284371    -0.06700
C1061       C  0.85569066  0.40346974  0.85831078    -0.17900
C1062       C  0.85317565  0.40430217  0.89038110     0.10500
S1063       S  0.91745367  0.30390454  0.84353487    -0.32900
S1064       S  0.82528468  0.44281878  0.90703110    -0.32900
H1065       H  0.80701634  0.41923718  0.92877671     0.28500
H1066       H  0.93719064  0.32725495  0.82248424     0.28500
H1067       H  0.90212663  0.32134091  0.90567153     0.19100
H1068       H  0.84203833  0.42623993  0.84529185     0.19100
C1069       C  0.87582400  0.38035356  0.65771951    -0.06700
C1070       C  0.85343189  0.40870251  0.64315756    -0.17900
C1071       C  0.84988518  0.41001977  0.61102767     0.10500
C1072       C  0.86927267  0.38228657  0.59297377    -0.06700
C1073       C  0.89151022  0.35391066  0.60759863    -0.17900
C1074       C  0.89574155  0.35317502  0.63953373     0.10500
S1075       S  0.81856457  0.44559204  0.59370346    -0.32900
S1076       S  0.92866615  0.31819211  0.65535325    -0.32900
H1077       H  0.94348775  0.34289976  0.67803817     0.28500
H1078       H  0.80792893  0.46448416  0.62101700     0.28500
H1079       H  0.83781570  0.42926282  0.65710856     0.19100
H1080       H  0.90682844  0.33276683  0.59397437     0.19100
C1081       C  0.99052346  0.37972402  0.75087033    -0.06700
C1082       C  0.01034934  0.35284572  0.76906380    -0.17900
C1083       C  0.05040040  0.35345082  0.77148626     0.10500
C1084       C  0.07159218  0.38081456  0.75462627    -0.06700
C1085       C  0.05178277  0.40794589  0.73663081    -0.17900
C1086       C  0.01166125  0.40737350  0.73424492     0.10500
S1087       S  0.07243831  0.31979471  0.79775411    -0.32900
S1088       S  0.98952640  0.44107730  0.70808112    -0.32900
H1089       H  0.96176839  0.41524202  0.69706904     0.28500
H1090       H  0.10071613  0.34538366  0.80826477     0.28500
H1091       H  0.99449553  0.33196988  0.78223192     0.19100
H1092       H  0.06768982  0.42869428  0.72336779     0.19100
C1093       C  0.18345962  0.37393084  0.91089843    -0.06700
C1094       C  0.16414048  0.40329917  0.89494267    -0.17900
C1095       C  0.16358323  0.40450351  0.86280582     0.10500
C1096       C  0.18374877  0.37624803  0.84577225    -0.11500
C1097       C  0.20264377  0.34652983  0.86169037    -0.17900
C1098       C  0.20319477  0.34533478  0.89390116     0.10500
S1099       S  0.13496731  0.44180911  0.84515498    -0.32900
S1100       S  0.23182808  0.30816436  0.91169735    -0.32900
H1101       H  0.24777748  0.33246588  0.93416194     0.28500
H1102       H  0.11986233  0.41791936  0.82204251     0.28500
H1103       H  0.14856600  0.42517034  0.90762192     0.19100
H1104       H  0.21840115  0.32482646  0.84896612     0.19100
C1105       C  0.18628745  0.38037837  0.59507746    -0.06700
C1106       C  0.17191639  0.41248198  0.61099800    -0.17900
C1107       C  0.17072076  0.41345072  0.64318528     0.10500
C1108       C  0.18508908  0.38187462  0.66035711    -0.06700
C1109       C  0.19987016  0.34998688  0.64439579    -0.17900
C1110       C  0.20117840  0.34907899  0.61224923     0.10500
S1111       S  0.14844099  0.45496358  0.66053945    -0.32900
S1112       S  0.22422664  0.30795039  0.59490959    -0.32900
H1113       H  0.24456786  0.32966597  0.57310216     0.28500
H1114       H  0.12663432  0.43343545  0.68153137     0.28500
H1115       H  0.16020787  0.43660503  0.59826879     0.19100
H1116       H  0.21162776  0.32584484  0.65707482     0.19100
C1117       C  0.06600883  0.38433234  0.50252697    -0.06700
C1118       C  0.04602690  0.35617414  0.51902244    -0.17900
C1119       C  0.00589867  0.35618246  0.52028631     0.10500
C1120       C  0.98468760  0.38436052  0.50394651    -0.06700
C1121       C  0.00665493  0.40537612  0.98643461    -0.17900
C1122       C  0.04682680  0.40521405  0.98537207     0.10500
S1123       S  0.98373903  0.32078766  0.54462072    -0.32900
S1124       S  0.06920377  0.43696755  0.95810611    -0.32900
H1125       H  0.09691289  0.40996028  0.94855967     0.28500
H1126       H  0.95563567  0.34622927  0.55592301     0.28500
H1127       H  0.06184213  0.33450489  0.53177735     0.19100
H1128       H  0.99087683  0.42475413  0.97151894     0.19100
C1129       C  0.68749852  0.48869690  0.74561035    -0.06700
C1130       C  0.69142828  0.50747585  0.77410647    -0.17900
C1131       C  0.69456937  0.54743430  0.77620805     0.10500
C1132       C  0.69246297  0.57013084  0.74918177    -0.06700
C1133       C  0.68878715  0.55132344  0.72071199    -0.17900
C1134       C  0.68623413  0.51141160  0.71853492     0.10500
S1135       S  0.70265906  0.56681822  0.81409388    -0.32900
S1136       S  0.68118617  0.49221615  0.68023221    -0.32900
H1137       H  0.64761816  0.47191952  0.68733961     0.28500
H1138       H  0.73502775  0.58798269  0.80497362     0.28500
H1139       H  0.69316364  0.49088654  0.79512122     0.19100
H1140       H  0.68726258  0.56783574  0.69964883     0.19100
C1141       C  0.67717745  0.49305462  0.49935150    -0.06700
C1142       C  0.69998287  0.51179801  0.52134503    -0.17900
C1143       C  0.70294907  0.55188466  0.52192255     0.10500
C1144       C  0.68177801  0.57419563  0.50056393    -0.06700
C1145       C  0.66359153  0.55235294  0.98005155    -0.17900
C1146       C  0.65963956  0.51238334  0.98020111     0.10500
S1147       S  0.73616657  0.57245636  0.54912091    -0.32900
S1148       S  0.62567594  0.49176852  0.95360412    -0.32900
H1149       H  0.61312201  0.46290470  0.97382622     0.28500
H1150       H  0.75000694  0.60060834  0.52881219     0.28500
H1151       H  0.71691263  0.49500410  0.53745647     0.19100
H1152       H  0.64721970  0.56908744  0.96355627     0.19100
C1153       C  0.49494155  0.68505228  0.74521399    -0.06700
C1154       C  0.51494819  0.66465621  0.76811154    -0.17900
C1155       C  0.55507339  0.66287540  0.76846799     0.10500
C1156       C  0.57627556  0.68330125  0.74616861    -0.06700
C1157       C  0.55636206  0.70340026  0.72305348    -0.17900
C1158       C  0.51613925  0.70423533  0.72218485     0.10500
S1159       S  0.57723547  0.63241749  0.79706581    -0.32900
S1160       S  0.49366015  0.73247075  0.69245377    -0.32900
H1161       H  0.47855266  0.69995080  0.67759614     0.28500
H1162       H  0.60591678  0.61813896  0.77730327     0.28500
H1163       H  0.49916270  0.64907773  0.78549611     0.19100
H1164       H  0.57222419  0.71918365  0.70584013     0.19100
C1165       C  0.48695780  0.68790229  0.50220522    -0.06700
C1166       C  0.51213140  0.70880331  0.98067849    -0.17900
C1167       C  0.55224333  0.71062932  0.97939868     0.10500
C1168       C  0.56804775  0.69198478  0.50063973    -0.06700
C1169       C  0.54946581  0.66787607  0.52168441    -0.17900
C1170       C  0.50940003  0.66566002  0.52269778     0.10500
S1171       S  0.57300030  0.74237808  0.95128976    -0.32900
S1172       S  0.48850483  0.63174051  0.54890761    -0.32900
H1173       H  0.47510938  0.66083076  0.56870696     0.28500
H1174       H  0.60258790  0.75544136  0.97067268     0.28500
H1175       H  0.49531303  0.72550022  0.96441827     0.19100
H1176       H  0.56631848  0.65001701  0.53709922     0.19100
C1177       C  0.57162990  0.37147718  0.74279181    -0.06700
C1178       C  0.55257867  0.34783504  0.76393772    -0.17900
C1179       C  0.51247667  0.34546040  0.76436649     0.10500
C1180       C  0.49046034  0.36816216  0.74384728    -0.06700
C1181       C  0.50948126  0.39112548  0.72222056    -0.17900
C1182       C  0.54962304  0.39334174  0.72169078     0.10500
S1183       S  0.49132882  0.31149991  0.79057780    -0.32900
S1184       S  0.57079694  0.42673702  0.69513999    -0.32900
H1185       H  0.59779631  0.44049782  0.71652945     0.28500
H1186       H  0.46155995  0.30056992  0.77051939     0.28500
H1187       H  0.56911116  0.33032019  0.77980085     0.19100
H1188       H  0.49293089  0.40881565  0.70649820     0.19100
C1189       C  0.37909020  0.48899667  0.75001272    -0.06700
C1190       C  0.35768817  0.50916352  0.72782595    -0.17900
C1191       C  0.35598921  0.54927984  0.72780217     0.10500
C1192       C  0.37719481  0.57021226  0.74989788    -0.06700
C1193       C  0.39829204  0.55006753  0.77229427    -0.17900
C1194       C  0.39985139  0.50989998  0.77240159     0.10500
S1195       S  0.32436475  0.57168930  0.70013405    -0.32900
S1196       S  0.43061356  0.48738219  0.80060454    -0.32900
H1197       H  0.44525388  0.45950149  0.78024723     0.28500
H1198       H  0.31036433  0.59965992  0.72069056     0.28500
H1199       H  0.34103341  0.49351592  0.71092927     0.19100
H1200       H  0.41481663  0.56574930  0.78925040     0.19100
C1201       C  0.56599478  0.37308757  0.49537926    -0.06700
C1202       C  0.54613601  0.39439099  0.51770874    -0.17900
C1203       C  0.50605246  0.39566904  0.51825700     0.10500
C1204       C  0.48483667  0.37419491  0.49655402    -0.06700
C1205       C  0.50604030  0.35775760  0.97472348    -0.17900
C1206       C  0.54626221  0.35615675  0.97378259     0.10500
S1207       S  0.48388161  0.42696633  0.54619779    -0.32900
S1208       S  0.56917790  0.32953893  0.94311604    -0.32900
H1209       H  0.53681176  0.32729076  0.92378411     0.28500
H1210       H  0.45512840  0.44052134  0.52609637     0.28500
H1211       H  0.56201307  0.41120922  0.53436185     0.19100
H1212       H  0.48954576  0.34329421  0.95708586     0.19100
C1213       C  0.37113980  0.48879726  0.50333797    -0.06700
C1214       C  0.39618626  0.50912817  0.98211646    -0.17900
C1215       C  0.40036621  0.54904843  0.98293944     0.10500
C1216       C  0.37579903  0.56983846  0.50484359    -0.06700
C1217       C  0.35320013  0.55009371  0.52628922    -0.17900
C1218       C  0.35035034  0.50998517  0.52561217     0.10500
S1219       S  0.43423462  0.57011707  0.95663667    -0.32900
S1220       S  0.31787754  0.48796256  0.55252738    -0.32900
H1221       H  0.30364930  0.46072928  0.53153673     0.28500
H1222       H  0.44733256  0.59819219  0.97740578     0.28500
H1223       H  0.41249672  0.49269186  0.96542613     0.19100
H1224       H  0.33631741  0.56610826  0.54286639     0.19100
C1225       C  0.69079631  0.87522823  0.83859270    -0.06700
C1226       C  0.71802409  0.85297489  0.85454412    -0.17900
C1227       C  0.71763766  0.85058431  0.88667550     0.10500
C1228       C  0.68991798  0.87162174  0.90355895    -0.06700
C1229       C  0.66281489  0.89401637  0.88759956    -0.17900
C1230       C  0.66334556  0.89657295  0.85548846     0.10500
S1231       S  0.75193179  0.81855193  0.90451103    -0.32900
S1232       S  0.62983880  0.92946275  0.83768538    -0.32900
H1233       H  0.65578364  0.94253076  0.81528688     0.28500
H1234       H  0.72643757  0.80508757  0.92708831     0.28500
H1235       H  0.73898292  0.83623478  0.84183412     0.19100
H1236       H  0.64192920  0.91085377  0.90030479     0.19100
C1237       C  0.69080305  0.87708045  0.58864238    -0.06700
C1238       C  0.66379051  0.89903167  0.60498210    -0.17900
C1239       C  0.66391593  0.89985458  0.63717035     0.10500
C1240       C  0.69094001  0.87732675  0.65364193    -0.06700
C1241       C  0.71813503  0.85567848  0.63730141    -0.17900
C1242       C  0.71799752  0.85486437  0.60515973     0.10500
S1243       S  0.63035198  0.93191933  0.65571071    -0.32900
S1244       S  0.75166177  0.82295474  0.58671718    -0.32900
H1245       H  0.72517180  0.80924248  0.56489077     0.28500
H1246       H  0.65621500  0.94385196  0.67867102     0.28500
H1247       H  0.64315815  0.91659653  0.59258950     0.19100
H1248       H  0.73876569  0.83807695  0.64966842     0.19100
C1249       C  0.68768373  0.07010633  0.74662502    -0.06700
C1250       C  0.71883058  0.05078187  0.73302143    -0.17900
C1251       C  0.72007706  0.01072527  0.73129533     0.10500
C1252       C  0.69015280  0.98897019  0.74447581    -0.06700
C1253       C  0.65886608  0.00825776  0.75786473    -0.17900
C1254       C  0.65740693  0.04832185  0.75932313     0.10500
S1255       S  0.75939375  0.98959140  0.71019741    -0.32900
S1256       S  0.61697899  0.06936958  0.77908121    -0.32900
H1257       H  0.63923670  0.09617845  0.79540366     0.28500
H1258       H  0.73636703  0.96247311  0.69490181     0.28500
H1259       H  0.74180361  0.06699558  0.72263769     0.19100
H1260       H  0.63582774  0.99202658  0.76813670     0.19100
C1261       C  0.68672694  0.18566279  0.90270066    -0.06700
C1262       C  0.71453329  0.20735598  0.88720814    -0.17900
C1263       C  0.71533344  0.20916530  0.85503999     0.10500
C1264       C  0.68836834  0.18794567  0.83768865    -0.06700
C1265       C  0.66063095  0.16624523  0.85319830    -0.17900
C1266       C  0.65982861  0.16443487  0.88531499     0.10500
S1267       S  0.74993173  0.24085188  0.83776177    -0.32900
S1268       S  0.62519718  0.13271658  0.90249145    -0.32900
H1269       H  0.65031316  0.11890971  0.92541203     0.28500
H1270       H  0.72497924  0.25425784  0.81458509     0.28500
H1271       H  0.73501811  0.22407509  0.90026521     0.19100
H1272       H  0.64011472  0.14952255  0.84017785     0.19100
C1273       C  0.68714315  0.18535251  0.58751981    -0.06700
C1274       C  0.65973063  0.20718192  0.60352036    -0.17900
C1275       C  0.65941409  0.20834838  0.63568714     0.10500
C1276       C  0.68647645  0.18633147  0.65255695    -0.06700
C1277       C  0.71350390  0.16399376  0.63652929    -0.17900
C1278       C  0.71378457  0.16280900  0.60434655     0.10500
S1279       S  0.62534308  0.24043457  0.65360817    -0.32900
S1280       S  0.74755538  0.13046044  0.58632276    -0.32900
H1281       H  0.72279281  0.11938228  0.56237079     0.28500
H1282       H  0.65113744  0.25374415  0.67612322     0.28500
H1283       H  0.63932420  0.22469275  0.59086345     0.19100
H1284       H  0.73391112  0.14647616  0.64917907     0.19100
C1285       C  0.69197173  0.07398430  0.49621513    -0.06700
C1286       C  0.71433844  0.05161493  0.97894022    -0.17900
C1287       C  0.71493167  0.01147907  0.97719990     0.10500
C1288       C  0.69278678  0.99284125  0.49388536    -0.06700
C1289       C  0.66520603  0.01256408  0.51138780    -0.17900
C1290       C  0.66480815  0.05261254  0.51309706     0.10500
S1291       S  0.75051753  0.98974065  0.95255049    -0.32900
S1292       S  0.63005706  0.07435054  0.53852324    -0.32900
H1293       H  0.65477665  0.10319293  0.54931155     0.28500
H1294       H  0.72587621  0.96122991  0.94099901     0.28500
H1295       H  0.73540469  0.06774237  0.96612438     0.19100
H1296       H  0.64441719  0.99660044  0.52463760     0.19100
C1297       C  0.18927185  0.68491308  0.91301784    -0.06700
C1298       C  0.21441434  0.65983467  0.89764307    -0.17900
C1299       C  0.21737017  0.66021623  0.86555873     0.10500
C1300       C  0.19390795  0.68547252  0.84823825    -0.06700
C1301       C  0.16881575  0.71058101  0.86362587    -0.17900
C1302       C  0.16587448  0.71021226  0.89570158     0.10500
S1303       S  0.25315954  0.62942574  0.84831016    -0.32900
S1304       S  0.13021293  0.74113858  0.91295929    -0.32900
H1305       H  0.11966068  0.71493454  0.93604060     0.28500
H1306       H  0.26335566  0.65550511  0.82504254     0.28500
H1307       H  0.23285524  0.64079941  0.91074831     0.19100
H1308       H  0.15040383  0.72965159  0.85054015     0.19100
C1309       C  0.18907320  0.68281009  0.59852260    -0.06700
C1310       C  0.16730477  0.71025284  0.61457655    -0.17900
C1311       C  0.16636727  0.71070751  0.64670418     0.10500
C1312       C  0.18864360  0.68384698  0.66347431    -0.06700
C1313       C  0.21057658  0.65647539  0.64745651    -0.17900
C1314       C  0.21146836  0.65598391  0.61528189     0.10500
S1315       S  0.13435189  0.74474500  0.66476424    -0.32900
S1316       S  0.24347199  0.62196662  0.59717278    -0.32900
H1317       H  0.25527964  0.64717566  0.57378393     0.28500
H1318       H  0.12190021  0.71924637  0.68773779     0.28500
H1319       H  0.14977515  0.73073407  0.60198519     0.19100
H1320       H  0.22816592  0.63608822  0.66010550     0.19100
C1321       C  0.99546850  0.68276767  0.75020475    -0.06700
C1322       C  0.01399808  0.71420283  0.76391761    -0.17900
C1323       C  0.05391222  0.71516255  0.76731033     0.10500
C1324       C  0.07657659  0.68466921  0.75556773    -0.06700
C1325       C  0.05815976  0.65348668  0.74150339    -0.17900
C1326       C  0.01818076  0.65194678  0.73900422     0.10500
S1327       S  0.07360447  0.75509815  0.78839064    -0.32900
S1328       S  0.99838983  0.61054478  0.72012757    -0.32900
H1329       H  0.98299667  0.59593321  0.74761180     0.28500
H1330       H  0.09986858  0.73244323  0.80517760     0.28500
H1331       H  0.99713638  0.73779425  0.77319287     0.19100
H1332       H  0.07509843  0.63005388  0.73206048     0.19100
C1333       C  0.87956935  0.68134921  0.90723966    -0.06700
C1334       C  0.89927743  0.71061223  0.89173260    -0.17900
C1335       C  0.90199386  0.71105038  0.85963016     0.10500
C1336       C  0.88335150  0.68235634  0.84215626    -0.06700
C1337       C  0.86444783  0.65257243  0.85764563    -0.17900
C1338       C  0.86209153  0.65186496  0.88977684     0.10500
S1339       S  0.93158378  0.74769268  0.84265939    -0.32900
S1340       S  0.83446258  0.61371540  0.90670538    -0.32900
H1341       H  0.81558846  0.63771798  0.92796993     0.28500
H1342       H  0.94760362  0.72328317  0.82022611     0.28500
H1343       H  0.91370854  0.73278865  0.90476584     0.19100
H1344       H  0.85009368  0.63035849  0.84459952     0.19100
C1345       C  0.87153097  0.68619890  0.59226696    -0.06700
C1346       C  0.89375394  0.65817043  0.60724433    -0.17900
C1347       C  0.89768351  0.65802512  0.63921932     0.10500
C1348       C  0.87809112  0.68585634  0.65703950    -0.06700
C1349       C  0.85588732  0.71395904  0.64206565    -0.17900
C1350       C  0.85203068  0.71414026  0.61003016     0.10500
S1351       S  0.93021177  0.62323174  0.65559979    -0.32900
S1352       S  0.82015851  0.74939284  0.59345693    -0.32900
H1353       H  0.80479893  0.72448770  0.57115001     0.28500
H1354       H  0.94567300  0.64927030  0.67697720     0.28500
H1355       H  0.90942209  0.63702830  0.59385375     0.19100
H1356       H  0.84031813  0.73515208  0.65547367     0.19100
C1357       C  0.06798958  0.68188516  0.50753197    -0.06700
C1358       C  0.05599826  0.65725491  0.98809154    -0.17900
C1359       C  0.01596586  0.65691597  0.98522094     0.10500
C1360       C  0.98712055  0.68409802  0.50150527    -0.06700
C1361       C  0.00594006  0.70836815  0.52239317    -0.17900
C1362       C  0.04592251  0.70720903  0.52587183     0.10500
S1363       S  0.99540441  0.62142609  0.95994746    -0.32900
S1364       S  0.06681589  0.73729018  0.55517299    -0.32900
H1365       H  0.09583078  0.71096894  0.56346570     0.28500
H1366       H  0.96719211  0.64618822  0.94769170     0.28500
H1367       H  0.07272974  0.63598527  0.97569866     0.19100
H1368       H  0.98925244  0.72754479  0.53683918     0.19100
C1369       C  0.37435517  0.18633734  0.90484845    -0.06700
C1370       C  0.34890962  0.21112772  0.88941313    -0.17900
C1371       C  0.34868454  0.21367031  0.85732104     0.10500
C1372       C  0.37354238  0.18991757  0.83995602    -0.06700
C1373       C  0.39948745  0.16561722  0.85538249    -0.17900
C1374       C  0.39989732  0.16327016  0.88752805     0.10500
S1375       S  0.31754585  0.24926734  0.84009902    -0.32900
S1376       S  0.43195722  0.12862439  0.90485935    -0.32900
H1377       H  0.40607250  0.11717531  0.92786661     0.28500
H1378       H  0.34318031  0.25907937  0.81644292     0.28500
H1379       H  0.32979357  0.22952650  0.90250733     0.19100
H1380       H  0.41852969  0.14716594  0.84227442     0.19100
C1381       C  0.36577861  0.19144929  0.58959578    -0.06700
C1382       C  0.33365580  0.17721757  0.60530330    -0.17900
C1383       C  0.33311380  0.17421282  0.63737139     0.10500
C1384       C  0.36528012  0.18633222  0.65475866    -0.06700
C1385       C  0.39707857  0.20144598  0.63906434    -0.17900
C1386       C  0.39745122  0.20476617  0.60697004     0.10500
S1387       S  0.29125550  0.15256990  0.65419690    -0.32900
S1388       S  0.43831619  0.22818320  0.59000971    -0.32900
H1389       H  0.41642848  0.24921211  0.56850696     0.28500
H1390       H  0.31266094  0.12848133  0.67383454     0.28500
H1391       H  0.30911708  0.16684738  0.59243739     0.19100
H1392       H  0.42155694  0.21190512  0.65195527     0.19100
C1393       C  0.36828224  0.98919474  0.75521614    -0.06700
C1394       C  0.33594518  0.00800031  0.74287309    -0.17900
C1395       C  0.33393796  0.04824879  0.74098648     0.10500
C1396       C  0.36544622  0.07047507  0.75124293    -0.06700
C1397       C  0.39725836  0.05157441  0.76436301    -0.17900
C1398       C  0.39861889  0.01159745  0.76715567     0.10500
S1399       S  0.29180049  0.07012534  0.72387612    -0.32900
S1400       S  0.43899001  0.99136952  0.78767629    -0.32900
H1401       H  0.41697324  0.96387662  0.80338066     0.28500
H1402       H  0.26961201  0.03660218  0.72162456     0.28500
H1403       H  0.31259276  0.99101271  0.73382341     0.19100
H1404       H  0.42098942  0.06816063  0.77335213     0.19100
C1405       C  0.37378137  0.87154306  0.91000877    -0.06700
C1406       C  0.40714980  0.88250228  0.89426603    -0.17900
C1407       C  0.40910897  0.88226029  0.86215382     0.10500
C1408       C  0.37663612  0.87116532  0.84461827    -0.06700
C1409       C  0.34329815  0.85997769  0.86036613    -0.17900
C1410       C  0.34137674  0.85988267  0.89259487     0.10500
S1411       S  0.45364111  0.89777045  0.84540478    -0.32900
S1412       S  0.29774106  0.84303376  0.91050370    -0.32900
H1413       H  0.27416088  0.84506325  0.88422870     0.28500
H1414       H  0.46140489  0.86142331  0.83258064     0.28500
H1415       H  0.43225504  0.89170012  0.90712990     0.19100
H1416       H  0.31847489  0.85064791  0.84728211     0.19100
C1417       C  0.36974025  0.87674704  0.65910649    -0.06700
C1418       C  0.39853080  0.85679035  0.64305480    -0.17900
C1419       C  0.39799319  0.85407553  0.61097166     0.10500
C1420       C  0.36842249  0.87254210  0.59409075    -0.06700
C1421       C  0.33971307  0.89269600  0.61011916    -0.17900
C1422       C  0.34033850  0.89550438  0.64224676     0.10500
S1423       S  0.43466119  0.82476851  0.59328056    -0.32900
S1424       S  0.30419227  0.92533071  0.66005925    -0.32900
H1425       H  0.32906282  0.94089285  0.68231530     0.28500
H1426       H  0.40982403  0.80806994  0.57154290     0.28500
H1427       H  0.42104392  0.84192544  0.65570507     0.19100
H1428       H  0.31724732  0.90757793  0.59743224     0.19100
C1429       C  0.36279262  0.98880776  0.50340362    -0.06700
C1430       C  0.34916893  0.00870793  0.98179271    -0.17900
C1431       C  0.34819517  0.04883113  0.97975317     0.10500
C1432       C  0.36051359  0.07011434  0.50124546    -0.06700
C1433       C  0.38988303  0.05074644  0.51724488    -0.17900
C1434       C  0.39086979  0.01061311  0.51905452     0.10500
S1435       S  0.31703066  0.07007885  0.95134735    -0.32900
S1436       S  0.42754813  0.98921805  0.54298018    -0.32900
H1437       H  0.40354664  0.96057139  0.55506911     0.28500
H1438       H  0.29154091  0.08450467  0.97365892     0.28500
H1439       H  0.33055443  0.99202344  0.96701449     0.19100
H1440       H  0.41181568  0.06704267  0.52909766     0.19100
loop_ 
_geom_bond_atom_site_label_1 
_geom_bond_atom_site_label_2 
_geom_bond_distance 
_geom_bond_site_symmetry_2 
_ccdc_geom_bond_type 
O1         Ni729   1.915       .  S
O1          C731   1.279       .  A
O2           Ni9   1.919       .  S
O2          C732   1.281       .  A
O3           Ni9   1.918       .  S
O3           C13   1.281       .  A
O4         Ni729   1.915       .  S
O4           C14   1.280       .  A
O5         Ni730   1.919       .  S
O5           C14   1.281       .  A
O6          Ni10   1.914       .  S
O6           C13   1.281       .  A
O7         Ni730   1.916       .  S
O7           C12   1.281       .  A
O8          Ni10   1.920       .  S
O8           C11   1.280       .  A
Ni9         O721   1.915       .  S
Ni9         O724   1.920   1_554  S
Ni9         Ni10   2.388       .  S
Ni10        O725   1.912   1_554  S
Ni10        O727   1.919       .  S
C11         O721   1.279       .  A
C11         C209   1.459       .  S
C12         O722   1.282       .  A
C12        C1429   1.481       .  S
C13         C700   1.477       .  S
C14         C685   1.469       .  S
O15         Ni23   1.910       .  S
O15          C25   1.278       .  A
O16         Ni23   1.912       .  S
O16          C26   1.280       .  A
O17         Ni23   1.917       .  S
O17          C27   1.281       .  A
O18         Ni23   1.918       .  S
O18          C28   1.281       .  A
O19         Ni24   1.916       .  S
O19          C28   1.281       .  A
O20         Ni24   1.915       .  S
O20          C27   1.280       .  A
O21         Ni24   1.915       .  S
O21          C26   1.282       .  A
O22         Ni24   1.919       .  S
O22          C25   1.281       .  A
Ni23        Ni24   2.390       .  S
C25         C221   1.455       .  S
C26         C673   1.485       .  S
C27         C688   1.468       .  S
C28         C697   1.476       .  S
O29        Ni757   1.915       .  S
O29         C759   1.279       .  A
O30         Ni37   1.918       .  S
O30          C40   1.281       .  A
O31         Ni37   1.915   1_554  S
O31          C41   1.281       .  A
O32        Ni757   1.914       .  S
O32          C42   1.280       .  A
O33        Ni758   1.918       .  S
O33          C42   1.282       .  A
O34         Ni38   1.917   1_554  S
O34          C41   1.281       .  A
O35        Ni758   1.917       .  S
O35         C760   1.282       .  A
O36         Ni38   1.918       .  S
O36          C39   1.280       .  A
Ni37        O749   1.917       .  S
Ni37        O752   1.913       .  S
Ni37        Ni38   2.390       .  S
Ni38        O753   1.919       .  S
Ni38        O755   1.920       .  S
C39         O749   1.280       .  A
C39         C179   1.459       .  S
C40         O755   1.282       .  A
C40         C712   1.481       .  S
C41         C661   1.477       .  S
C42         C649   1.475       .  S
O43         Ni51   1.916       .  S
O43          C53   1.279       .  A
O44         Ni51   1.917       .  S
O44          C54   1.279       .  A
O45         Ni51   1.918       .  S
O45          C55   1.282       .  A
O46         Ni51   1.924       .  S
O46          C56   1.283       .  A
O47         Ni52   1.917       .  S
O47          C56   1.281       .  A
O48         Ni52   1.914       .  S
O48          C55   1.280       .  A
O49         Ni52   1.916       .  S
O49          C54   1.283       .  A
O50         Ni52   1.917       .  S
O50          C53   1.280       .  A
Ni51        Ni52   2.388       .  S
C53         C193   1.458       .  S
C54         C676   1.489       .  S
C55         C652   1.476       .  S
C56         C664   1.481       .  S
O57        Ni785   1.917       .  S
O57         C787   1.280       .  A
O58         Ni65   1.918       .  S
O58         C788   1.281       .  A
O59         Ni65   1.918       .  S
O59          C69   1.281       .  A
O60        Ni785   1.914       .  S
O60          C70   1.281       .  A
O61        Ni786   1.915       .  S
O61          C70   1.281       .  A
O62         Ni66   1.919   1_554  S
O62          C69   1.282       .  A
O63        Ni786   1.920       .  S
O63          C68   1.282       .  A
O64         Ni66   1.917       .  S
O64          C67   1.280       .  A
Ni65        O777   1.922       .  S
Ni65        O780   1.917   1_554  S
Ni65        Ni66   2.389   1_554  S
Ni66        O781   1.918       .  S
Ni66        O783   1.917       .  S
C67         O777   1.281   1_556  A
C67         C265   1.461       .  S
C68         O778   1.281       .  A
C68        C1360   1.479       .  S
C69         C625   1.479       .  S
C70         C613   1.476       .  S
O71         Ni79   1.918       .  S
O71          C81   1.280       .  A
O72         Ni79   1.915       .  S
O72          C82   1.281       .  A
O73         Ni79   1.915       .  S
O73          C83   1.281       .  A
O74         Ni79   1.917       .  S
O74          C84   1.281       .  A
O75         Ni80   1.919       .  S
O75          C84   1.282       .  A
O76         Ni80   1.917       .  S
O76          C83   1.281       .  A
O77         Ni80   1.917       .  S
O77          C82   1.281       .  A
O78         Ni80   1.919       .  S
O78          C81   1.280       .  A
Ni79        Ni80   2.390       .  S
C81         C279   1.460       .  S
C82         C601   1.477       .  S
C83         C616   1.477       .  S
C84         C628   1.479       .  S
O85        Ni813   1.917       .  S
O85         C815   1.280       .  A
O86         Ni93   1.916       .  S
O86          C96   1.281       .  A
O87         Ni93   1.914       .  S
O87          C97   1.282       .  A
O88        Ni813   1.917       .  S
O88          C98   1.281       .  A
O89        Ni814   1.915       .  S
O89          C98   1.281       .  A
O90         Ni94   1.914       .  S
O90          C97   1.280       .  A
O91        Ni814   1.921       .  S
O91         C816   1.282       .  A
O92         Ni94   1.916       .  S
O92          C95   1.280       .  A
Ni93        O805   1.915       .  S
Ni93        O808   1.914   1_554  S
Ni93        Ni94   2.389       .  S
Ni94        O809   1.915   1_554  S
Ni94        O811   1.917       .  S
C95         O805   1.279       .  A
C95         C207   1.456       .  S
C96         O811   1.281       .  A
C96         C637   1.481       .  S
C97         C589   1.486       .  S
C98         C577   1.480       .  S
O99        Ni107   1.918       .  S
O99         C109   1.280       .  A
O100       Ni107   1.919       .  S
O100        C110   1.282       .  A
O101       Ni107   1.915       .  S
O101        C111   1.281       .  A
O102       Ni107   1.912       .  S
O102        C112   1.279       .  A
O103       Ni108   1.916       .  S
O103        C112   1.283       .  A
O104       Ni108   1.919       .  S
O104        C111   1.282       .  A
O105       Ni108   1.913       .  S
O105        C110   1.280       .  A
O106       Ni108   1.914       .  S
O106        C109   1.278       .  A
Ni107      Ni108   2.388       .  S
C109        C223   1.456       .  S
C110        C604   1.477       .  S
C111        C580   1.481       .  S
C112        C592   1.487       .  S
O113       Ni841   1.916       .  S
O113        C843   1.279       .  A
O114       Ni121   1.915       .  S
O114        C124   1.281       .  A
O115       Ni121   1.918   1_554  S
O115        C125   1.282       .  A
O116       Ni841   1.915       .  S
O116        C126   1.281       .  A
O117       Ni842   1.915       .  S
O117        C126   1.281       .  A
O118       Ni122   1.914   1_554  S
O118        C125   1.281       .  A
O119       Ni842   1.919       .  S
O119        C844   1.281       .  A
O120       Ni122   1.919       .  S
O120        C123   1.280       .  A
Ni121       O833   1.917       .  S
Ni121       O836   1.918       .  S
Ni121      Ni122   2.390       .  S
Ni122       O837   1.915       .  S
Ni122       O839   1.918       .  S
C123        O833   1.280       .  A
C123        C235   1.460       .  S
C124        O839   1.282       .  A
C124        C565   1.479       .  S
C125        C553   1.478       .  S
C126        C541   1.477       .  S
O127       Ni135   1.913       .  S
O127        C137   1.279       .  A
O128       Ni135   1.912       .  S
O128        C138   1.280       .  A
O129       Ni135   1.912       .  S
O129        C139   1.281       .  A
O130       Ni135   1.915       .  S
O130        C140   1.280       .  A
O131       Ni136   1.918       .  S
O131        C140   1.282       .  A
O132       Ni136   1.917       .  S
O132        C139   1.281       .  A
O133       Ni136   1.918       .  S
O133        C138   1.282       .  A
O134       Ni136   1.918       .  S
O134        C137   1.280       .  A
Ni135      Ni136   2.389       .  S
C137        C249   1.456       .  S
C138        C529   1.482       .  S
C139        C544   1.477       .  S
C140        C556   1.478       .  S
O141       Ni869   1.918       .  S
O141        C871   1.280       .  A
O142       Ni149   1.916       .  S
O142        C152   1.281       .  A
O143       Ni149   1.914   1_554  S
O143        C153   1.281       .  A
O144       Ni869   1.911       .  S
O144        C154   1.280       .  A
O145       Ni870   1.918       .  S
O145        C154   1.282       .  A
O146       Ni150   1.921   1_554  S
O146        C153   1.282       .  A
O147       Ni870   1.912       .  S
O147        C872   1.281       .  A
O148       Ni150   1.919       .  S
O148        C151   1.280       .  A
Ni149       O861   1.916       .  S
Ni149       O864   1.913       .  S
Ni149      Ni150   2.389       .  S
Ni150       O865   1.920       .  S
Ni150       O867   1.917       .  S
C151        O861   1.279       .  A
C151        C263   1.458       .  S
C152        O867   1.281       .  A
C152        C568   1.479       .  S
C153        C517   1.481       .  S
C154        C508   1.476       .  S
O155       Ni163   1.914       .  S
O155        C165   1.279       .  A
O156       Ni163   1.913       .  S
O156        C166   1.280       .  A
O157       Ni163   1.917       .  S
O157        C167   1.281       .  A
O158       Ni163   1.919       .  S
O158        C168   1.282       .  A
O159       Ni164   1.916       .  S
O159        C168   1.281       .  A
O160       Ni164   1.913       .  S
O160        C167   1.280       .  A
O161       Ni164   1.916       .  S
O161        C166   1.282       .  A
O162       Ni164   1.922       .  S
O162        C165   1.281       .  A
Ni163      Ni164   2.389       .  S
C165        C277   1.459       .  S
C166        C532   1.481       .  S
C167        C505   1.476       .  S
C168        C520   1.481       .  S
O169       Ni177   1.916       .  S
O169        C179   1.280   1_554  A
O170       Ni177   1.915       .  S
O170        C180   1.281       .  A
O171       Ni177   1.913       .  S
O171        C181   1.279       .  A
O172       Ni177   1.913       .  S
O172        C182   1.280   1_554  A
O173       Ni178   1.919       .  S
O173        C902   1.281       .  A
O174       Ni178   1.920       .  S
O174        C901   1.281       .  A
O175       Ni178   1.920       .  S
O175        C900   1.282       .  A
O176       Ni178   1.922       .  S
O176        C899   1.281       .  A
Ni177      Ni898   2.391   1_554  S
Ni178      Ni897   2.391       .  S
C179        O896   1.280       .  A
C180        O895   1.281   1_554  A
C180        C493   1.477       .  S
C181        O894   1.280   1_554  A
C181        C291   1.456       .  S
C182        O893   1.282       .  A
C182        C484   1.479       .  S
O183       Ni191   1.918       .  S
O183        C193   1.280       .  A
O184       Ni191   1.917       .  S
O184        C194   1.281       .  A
O185       Ni191   1.920       .  S
O185        C195   1.280       .  A
O186       Ni191   1.917       .  S
O186        C196   1.281       .  A
O187       Ni192   1.916       .  S
O187        C196   1.282       .  A
O188       Ni192   1.916       .  S
O188        C195   1.280       .  A
O189       Ni192   1.914       .  S
O189        C194   1.281       .  A
O190       Ni192   1.916       .  S
O190        C193   1.279       .  A
Ni191      Ni192   2.390       .  S
C194        C469   1.482       .  S
C195        C305   1.459       .  S
C196        C460   1.485       .  S
O197       Ni205   1.916       .  S
O197        C207   1.280       .  A
O198       Ni205   1.916       .  S
O198        C208   1.281       .  A
O199       Ni205   1.919       .  S
O199        C209   1.280       .  A
O200       Ni205   1.917       .  S
O200        C210   1.281       .  A
O201       Ni206   1.916       .  S
O201        C930   1.282       .  A
O202       Ni206   1.917       .  S
O202        C929   1.280       .  A
O203       Ni206   1.920       .  S
O203        C928   1.282       .  A
O204       Ni206   1.920       .  S
O204        C927   1.280       .  A
Ni205      Ni926   2.391   1_554  S
Ni206      Ni925   2.391       .  S
C207        O924   1.279   1_554  A
C208        O923   1.281   1_554  A
C208        C445   1.479       .  S
C209        O922   1.279   1_554  A
C210        O921   1.281   1_554  A
C210        C496   1.478       .  S
O211       Ni219   1.913       .  S
O211        C221   1.278       .  A
O212       Ni219   1.913       .  S
O212        C222   1.280       .  A
O213       Ni219   1.917       .  S
O213        C223   1.281       .  A
O214       Ni219   1.921       .  S
O214        C224   1.282       .  A
O215       Ni220   1.915       .  S
O215        C224   1.281       .  A
O216       Ni220   1.914       .  S
O216        C223   1.279       .  A
O217       Ni220   1.919       .  S
O217        C222   1.282       .  A
O218       Ni220   1.915       .  S
O218        C221   1.280       .  A
Ni219      Ni220   2.390       .  S
C222        C472   1.482       .  S
C224        C433   1.484       .  S
O225       Ni233   1.921       .  S
O225        C955   1.281       .  A
O226       Ni233   1.921       .  S
O226        C956   1.282       .  A
O227       Ni233   1.918       .  S
O227        C957   1.280       .  A
O228       Ni233   1.918       .  S
O228        C958   1.281       .  A
O229       Ni234   1.918       .  S
O229        C238   1.282   1_554  A
O230       Ni234   1.918       .  S
O230        C237   1.280   1_554  A
O231       Ni234   1.917       .  S
O231        C236   1.281       .  A
O232       Ni234   1.917       .  S
O232        C235   1.280   1_554  A
Ni233      Ni954   2.391       .  S
Ni234      Ni953   2.391   1_554  S
C235        O945   1.280       .  A
C236        O946   1.281   1_554  A
C236        C421   1.478       .  S
C237        O947   1.279       .  A
C237        C319   1.457       .  S
C238        O948   1.280       .  A
C238        C481   1.481       .  S
O239       Ni247   1.916       .  S
O239        C249   1.279       .  A
O240       Ni247   1.916       .  S
O240        C250   1.281       .  A
O241       Ni247   1.914       .  S
O241        C251   1.279       .  A
O242       Ni247   1.917       .  S
O242        C252   1.281       .  A
O243       Ni248   1.919       .  S
O243        C252   1.283       .  A
O244       Ni248   1.917       .  S
O244        C251   1.280       .  A
O245       Ni248   1.918       .  S
O245        C250   1.281       .  A
O246       Ni248   1.915       .  S
O246        C249   1.280       .  A
Ni247      Ni248   2.390       .  S
C250        C409   1.481       .  S
C251        C333   1.456       .  S
C252        C457   1.488       .  S
O253       Ni261   1.917       .  S
O253        C263   1.280   1_554  A
O254       Ni261   1.916       .  S
O254        C264   1.281       .  A
O255       Ni261   1.917       .  S
O255        C265   1.280   1_554  A
O256       Ni261   1.914       .  S
O256        C266   1.281   1_554  A
O257       Ni262   1.920       .  S
O257        C986   1.282       .  A
O258       Ni262   1.920       .  S
O258        C985   1.281       .  A
O259       Ni262   1.916       .  S
O259        C984   1.281       .  A
O260       Ni262   1.913       .  S
O260        C983   1.279       .  A
Ni261      Ni982   2.391   1_554  S
Ni262      Ni981   2.391       .  S
C263        O980   1.280       .  A
C264        O979   1.282   1_554  A
C264        C424   1.479       .  S
C265        O978   1.281       .  A
C266        O977   1.281       .  A
C266        C448   1.477   1_556  S
O267       Ni275   1.920       .  S
O267        C277   1.281       .  A
O268       Ni275   1.920       .  S
O268        C278   1.281       .  A
O269       Ni275   1.920       .  S
O269        C279   1.281       .  A
O270       Ni275   1.919       .  S
O270        C280   1.282       .  A
O271       Ni276   1.916       .  S
O271        C280   1.281       .  A
O272       Ni276   1.918       .  S
O272        C279   1.280       .  A
O273       Ni276   1.913       .  S
O273        C278   1.281       .  A
O274       Ni276   1.916       .  S
O274        C277   1.279       .  A
Ni275      Ni276   2.390       .  S
C278        C412   1.482       .  S
C280        C436   1.481       .  S
O281      Ni1009   1.918       .  S
O281       C1011   1.280       .  A
O282       Ni289   1.917       .  S
O282        C292   1.281       .  A
O283       Ni289   1.915       .  S
O283        C293   1.280       .  A
O284      Ni1009   1.917       .  S
O284        C294   1.281       .  A
O285      Ni1010   1.913       .  S
O285        C294   1.280       .  A
O286       Ni290   1.917       .  S
O286        C293   1.281       .  A
O287      Ni1010   1.917       .  S
O287       C1012   1.282       .  A
O288       Ni290   1.915       .  S
O288        C291   1.279       .  A
Ni289      O1001   1.917       .  S
Ni289      O1004   1.913   1_554  S
Ni289      Ni290   2.390       .  S
Ni290      O1005   1.921   1_554  S
Ni290      O1007   1.923       .  S
C291       O1001   1.280       .  A
C292       O1007   1.282       .  A
C292        C397   1.482       .  S
C293        C385   1.471       .  S
C294        C373   1.477       .  S
O295       Ni303   1.923       .  S
O295        C305   1.282       .  A
O296       Ni303   1.919       .  S
O296        C306   1.282       .  A
O297       Ni303   1.913       .  S
O297        C307   1.280       .  A
O298       Ni303   1.912       .  S
O298        C308   1.280       .  A
O299       Ni304   1.918       .  S
O299        C308   1.281       .  A
O300       Ni304   1.916       .  S
O300        C307   1.281       .  A
O301       Ni304   1.914       .  S
O301        C306   1.281       .  A
O302       Ni304   1.913       .  S
O302        C305   1.278       .  A
Ni303      Ni304   2.391       .  S
C306        C364   1.480       .  S
C307        C376   1.476       .  S
C308        C388   1.470       .  S
O309      Ni1037   1.914       .  S
O309       C1039   1.279       .  A
O310       Ni317   1.918       .  S
O310        C320   1.281       .  A
O311       Ni317   1.914       .  S
O311        C321   1.282       .  A
O312      Ni1037   1.916       .  S
O312        C322   1.282       .  A
O313      Ni1038   1.913       .  S
O313        C322   1.280       .  A
O314       Ni318   1.911   1_554  S
O314        C321   1.280       .  A
O315      Ni1038   1.921       .  S
O315       C1040   1.282       .  A
O316       Ni318   1.919       .  S
O316        C319   1.280       .  A
Ni317      O1029   1.915       .  S
Ni317      O1032   1.922   1_554  S
Ni317      Ni318   2.389   1_554  S
Ni318      O1033   1.912       .  S
Ni318      O1035   1.920   1_556  S
C319       O1029   1.279   1_556  A
C320       O1035   1.282       .  A
C320        C400   1.481       .  S
C321        C352   1.476       .  S
C322        C337   1.480       .  S
O323       Ni331   1.913       .  S
O323        C333   1.279       .  A
O324       Ni331   1.914       .  S
O324        C334   1.281       .  A
O325       Ni331   1.910       .  S
O325        C335   1.280       .  A
O326       Ni331   1.909       .  S
O326        C336   1.280       .  A
O327       Ni332   1.917       .  S
O327        C336   1.281       .  A
O328       Ni332   1.918       .  S
O328        C335   1.282       .  A
O329       Ni332   1.919       .  S
O329        C334   1.281       .  A
O330       Ni332   1.919       .  S
O330        C333   1.280       .  A
Ni331      Ni332   2.389       .  S
C334        C361   1.480       .  S
C335        C340   1.481       .  S
C336        C349   1.477       .  S
C337        C338   1.404       .  A
C337        C342   1.416       .  A
C338        C339   1.398       .  A
C338        H347   1.083       .  S
C339        C340   1.416       .  A
C339        S343   1.803       .  S
C340        C341   1.404       .  A
C341        C342   1.398       .  A
C341        H348   1.083       .  S
C342        S344   1.803       .  S
S343        H346   1.407       .  S
S344        H345   1.408       .  S
C349        C350   1.404       .  A
C349        C354   1.414       .  A
C350        C351   1.399       .  A
C350        H359   1.085       .  S
C351        C352   1.415       .  A
C351        S355   1.804       .  S
C352        C353   1.402       .  A
C353        C354   1.395       .  A
C353        H360   1.085       .  S
C354        S356   1.804       .  S
S355        H358   1.408       .  S
S356        H357   1.408       .  S
C361        C362   1.404   1_655  A
C361        C366   1.415   1_655  A
C362        C363   1.397       .  A
C362        H371   1.079   1_455  S
C363        C364   1.414       .  A
C363        S367   1.803       .  S
C364        C365   1.405       .  A
C365        C366   1.402       .  A
C365        H372   1.079       .  S
C366        S368   1.803   1_455  S
S367        H370   1.407       .  S
S368        H369   1.408       .  S
C373        C374   1.403       .  A
C373        C378   1.415       .  A
C374        C375   1.399       .  A
C374        H383   1.083       .  S
C375        C376   1.415       .  A
C375        S379   1.804       .  S
C376        C377   1.402       .  A
C377        C378   1.398       .  A
C377        H384   1.084       .  S
C378        S380   1.804       .  S
S379        H382   1.407       .  S
S380        H381   1.407       .  S
C385        C386   1.401       .  A
C385        C390   1.412       .  A
C386        C387   1.398       .  A
C386        H395   1.084       .  S
C387        C388   1.412       .  A
C387        S391   1.803       .  S
C388        C389   1.402       .  A
C389        C390   1.399       .  A
C389        H396   1.084       .  S
C390        S392   1.803       .  S
S391        H394   1.406       .  S
S392        H393   1.406       .  S
C397        C398   1.405       .  A
C397       C1122   1.415   1_554  A
C398        C399   1.402       .  A
C398        H407   1.083       .  S
C399        C400   1.415   1_455  A
C399        S403   1.803   1_455  S
C400       C1121   1.403   1_654  A
C401        C402   1.401       .  A
C401       C1120   1.404   1_455  A
C401        H408   1.084   1_455  S
C402       C1117   1.416       .  A
C402        S404   1.802       .  S
S403        H406   1.406       .  S
S404        H405   1.407       .  S
C409        C410   1.406       .  A
C409        C414   1.413       .  A
C410        C411   1.402       .  A
C410        H419   1.084       .  S
C411        C412   1.415       .  A
C411        S415   1.803       .  S
C412        C413   1.404       .  A
C413        C414   1.396       .  A
C413        H420   1.084       .  S
C414        S416   1.802       .  S
S415        H418   1.408       .  S
S416        H417   1.407       .  S
C421        C422   1.404       .  A
C421       C1146   1.413   1_554  A
C422        C423   1.400       .  A
C422        H431   1.083       .  S
C423        C424   1.415       .  A
C423        S427   1.803       .  S
C424       C1145   1.404   1_554  A
C425        C426   1.400       .  A
C425       C1144   1.405       .  A
C425        H432   1.084       .  S
C426       C1141   1.414       .  A
C426        S428   1.803       .  S
S427        H430   1.407       .  S
S428        H429   1.407       .  S
C433        C434   1.406       .  A
C433        C438   1.415       .  A
C434        C435   1.400       .  A
C434        H443   1.084       .  S
C435        C436   1.415       .  A
C435        S439   1.803       .  S
C436        C437   1.404       .  A
C437        C438   1.400       .  A
C437        H444   1.083       .  S
C438        S440   1.799       .  S
S439        H442   1.407       .  S
S440        H441   1.407       .  S
C445        C450   1.413       .  A
C445       C1166   1.405   1_554  A
C446        C447   1.402       .  A
C446       C1165   1.405       .  A
C446        H455   1.084       .  S
C447       C1168   1.414       .  A
C447        S451   1.803       .  S
C448        C449   1.403       .  A
C448       C1167   1.414   1_554  A
C449        C450   1.398       .  A
C449        H456   1.084       .  S
C450        S452   1.799       .  S
S451        H454   1.407       .  S
S452        H453   1.407       .  S
C457        C458   1.406       .  A
C457        C462   1.417       .  A
C458        C459   1.399       .  A
C458        H467   1.085       .  S
C459        C460   1.414       .  A
C459        S463   1.803       .  S
C460        C461   1.405       .  A
C461        C462   1.404       .  A
C461        H468   1.083       .  S
C462        S464   1.809       .  S
S463        H466   1.408       .  S
S464        H465   1.407       .  S
C469        C470   1.404       .  A
C469        C474   1.416       .  A
C470        C471   1.397       .  A
C470        H479   1.083       .  S
C471        C472   1.415       .  A
C471        S475   1.804       .  S
C472        C473   1.405       .  A
C473        C474   1.401       .  A
C473        H480   1.083       .  S
C474        S476   1.803       .  S
S475        H478   1.408       .  S
S476        H477   1.408       .  S
C481        C482   1.404   1_556  A
C481       C1206   1.415       .  A
C482        C483   1.398       .  A
C482        H491   1.084       .  S
C483        C484   1.414   1_554  A
C483        S487   1.804       .  S
C484       C1205   1.403       .  A
C485        C486   1.406       .  A
C485       C1204   1.405       .  A
C485        H492   1.082       .  S
C486       C1201   1.414       .  A
C486        S488   1.808       .  S
S487        H490   1.408       .  S
S488        H489   1.407       .  S
C493        C498   1.414       .  A
C493       C1214   1.404   1_554  A
C494        C495   1.399       .  A
C494       C1213   1.403       .  A
C494        H503   1.084       .  S
C495       C1216   1.413       .  A
C495        S499   1.804       .  S
C496        C497   1.404       .  A
C496       C1215   1.413   1_554  A
C497        C498   1.400       .  A
C497        H504   1.084       .  S
C498        S500   1.804       .  S
S499        H502   1.408       .  S
S500        H501   1.407       .  S
C505        C506   1.403       .  A
C505        C510   1.414       .  A
C506        C507   1.398       .  A
C506        H515   1.084       .  S
C507        C508   1.414       .  A
C507        S511   1.804       .  S
C508        C509   1.403       .  A
C509        C510   1.398       .  A
C509        H516   1.084       .  S
C510        S512   1.804       .  S
S511        H514   1.407       .  S
S512        H513   1.407       .  S
C517        C518   1.404       .  A
C517        C522   1.414       .  A
C518        C519   1.402       .  A
C518        H527   1.084       .  S
C519        C520   1.416       .  A
C519        S523   1.803       .  S
C520        C521   1.402       .  A
C521        C522   1.398       .  A
C521        H528   1.084       .  S
C522        S524   1.801       .  S
S523        H526   1.408       .  S
S524        H525   1.407       .  S
C529        C530   1.405       .  A
C529        C534   1.415       .  A
C530        C531   1.400       .  A
C530        H539   1.081       .  S
C531        C532   1.416   1_545  A
C531        S535   1.803   1_545  S
C532        C533   1.404   1_565  A
C533        C534   1.397       .  A
C533        H540   1.081   1_545  S
C534        S536   1.803       .  S
S535        H538   1.408       .  S
S536        H537   1.407       .  S
C541        C542   1.404       .  A
C541        C546   1.414       .  A
C542        C543   1.400       .  A
C542        H551   1.083       .  S
C543        C544   1.414       .  A
C543        S547   1.803       .  S
C544        C545   1.403       .  A
C545        C546   1.397       .  A
C545        H552   1.083       .  S
C546        S548   1.804       .  S
S547        H550   1.407       .  S
S548        H549   1.407       .  S
C553        C554   1.403       .  A
C553        C558   1.414       .  A
C554        C555   1.400       .  A
C554        H563   1.083       .  S
C555        C556   1.415       .  A
C555        S559   1.803       .  S
C556        C557   1.403       .  A
C557        C558   1.399       .  A
C557        H564   1.083       .  S
C558        S560   1.804       .  S
S559        H562   1.407       .  S
S560        H561   1.407       .  S
C565        C570   1.415   1_556  A
C565       C1286   1.404       .  A
C566        C567   1.402       .  A
C566       C1285   1.405       .  A
C566        H575   1.082       .  S
C567       C1288   1.415   1_545  A
C567        S571   1.803   1_545  S
C568        C569   1.404   1_566  A
C568       C1287   1.415   1_565  A
C569        C570   1.399       .  A
C569        H576   1.082   1_545  S
C570        S572   1.803       .  S
S571        H574   1.407       .  S
S572        H573   1.407       .  S
C577        C578   1.405       .  A
C577        C582   1.414       .  A
C578        C579   1.399       .  A
C578        H587   1.082       .  S
C579        C580   1.414       .  A
C579        S583   1.803       .  S
C580        C581   1.405       .  A
C581        C582   1.399       .  A
C581        H588   1.082       .  S
C582        S584   1.803       .  S
S583        H586   1.408       .  S
S584        H585   1.408       .  S
C589        C590   1.406       .  A
C589        C594   1.416       .  A
C590        C591   1.403       .  A
C590        H599   1.081       .  S
C591        C592   1.419       .  A
C591        S595   1.810       .  S
C592        C593   1.405       .  A
C593        C594   1.396       .  A
C593        H600   1.082       .  S
C594        S596   1.803       .  S
S595        H598   1.407       .  S
S596        H597   1.408       .  S
C601        C602   1.404   1_655  A
C601        C606   1.415   1_655  A
C602        C603   1.399       .  A
C602        H611   1.084   1_455  S
C603        C604   1.413       .  A
C603        S607   1.803       .  S
C604        C605   1.403       .  A
C605        C606   1.399       .  A
C605        H612   1.084       .  S
C606        S608   1.804   1_455  S
S607        H610   1.407       .  S
S608        H609   1.406       .  S
C613        C614   1.403       .  A
C613        C618   1.414       .  A
C614        C615   1.398       .  A
C614        H623   1.084       .  S
C615        C616   1.414       .  A
C615        S619   1.804       .  S
C616        C617   1.404       .  A
C617        C618   1.399       .  A
C617        H624   1.084       .  S
C618        S620   1.804       .  S
S619        H622   1.406       .  S
S620        H621   1.407       .  S
C625        C626   1.403       .  A
C625        C630   1.414       .  A
C626        C627   1.400       .  A
C626        H635   1.084       .  S
C627        C628   1.414       .  A
C627        S631   1.804       .  S
C628        C629   1.403       .  A
C629        C630   1.400       .  A
C629        H636   1.084       .  S
C630        S632   1.801       .  S
S631        H634   1.407       .  S
S632        H633   1.407       .  S
C637        C642   1.415       .  A
C637       C1358   1.405   1_554  A
C638        C639   1.401       .  A
C638       C1357   1.404       .  A
C638        H647   1.084       .  S
C639       C1360   1.414   1_455  A
C639        S643   1.804   1_455  S
C640        C788   1.480       .  S
C640        C641   1.404   1_655  A
C640       C1359   1.414   1_654  A
C641        C642   1.400       .  A
C641        H648   1.084   1_455  S
C642        S644   1.803       .  S
S643        H646   1.407       .  S
S644        H645   1.408       .  S
C649        C650   1.403       .  A
C649        C654   1.413       .  A
C650        C651   1.398       .  A
C650        H659   1.084       .  S
C651        C652   1.413       .  A
C651        S655   1.803       .  S
C652        C653   1.404       .  A
C653        C654   1.400       .  A
C653        H660   1.084       .  S
C654        S656   1.804       .  S
S655        H658   1.407       .  S
S656        H657   1.407       .  S
C661        C662   1.402       .  A
C661        C666   1.414       .  A
C662        C663   1.397       .  A
C662        H671   1.084       .  S
C663        C664   1.412       .  A
C663        S667   1.795       .  S
C664        C665   1.405       .  A
C665        C666   1.402       .  A
C665        H672   1.083       .  S
C666        S668   1.803       .  S
S667        H670   1.407       .  S
S668        H669   1.407       .  S
C673        C674   1.405   1_565  A
C673        C678   1.415   1_565  A
C674        C675   1.400       .  A
C674        H683   1.083   1_545  S
C675        C676   1.420       .  A
C675        S679   1.802       .  S
C676        C677   1.406       .  A
C677        C678   1.396       .  A
C677        H684   1.083       .  S
C678        S680   1.803   1_545  S
S679        H682   1.395       .  S
S680        H681   1.408       .  S
C685        C686   1.402       .  A
C685        C690   1.412       .  A
C686        C687   1.398       .  A
C686        H695   1.087       .  S
C687        C688   1.410       .  A
C687        S691   1.802       .  S
C688        C689   1.402       .  A
C689        C690   1.399       .  A
C689        H696   1.087       .  S
C690        S692   1.803       .  S
S691        H694   1.405       .  S
S692        H693   1.406       .  S
C697        C698   1.403       .  A
C697        C702   1.414       .  A
C698        C699   1.400       .  A
C698        H707   1.085       .  S
C699        C700   1.414       .  A
C699        S703   1.803       .  S
C700        C701   1.403       .  A
C701        C702   1.398       .  A
C701        H708   1.085       .  S
C702        S704   1.804       .  S
S703        H706   1.407       .  S
S704        H705   1.407       .  S
C709        C732   1.478       .  S
C709        C714   1.414   1_565  A
C709       C1430   1.403   1_564  A
C710        C711   1.400       .  A
C710       C1429   1.404   1_545  A
C710        H719   1.083   1_545  S
C711       C1432   1.415       .  A
C711        S715   1.799       .  S
C712        C713   1.405   1_556  A
C712       C1431   1.413       .  A
C713        C714   1.401       .  A
C713        H720   1.083       .  S
C714        S716   1.804   1_545  S
S715        H718   1.407       .  S
S716        H717   1.407       .  S
O722       Ni729   1.918       .  S
O723       Ni729   1.913       .  S
O723        C733   1.280       .  A
O724        C734   1.283       .  A
O725        C734   1.279       .  A
O726       Ni730   1.919       .  S
O726        C733   1.282       .  A
O727        C732   1.281       .  A
O728       Ni730   1.920       .  S
O728        C731   1.281       .  A
Ni729      Ni730   2.390       .  S
C731        C929   1.459       .  S
C733       C1420   1.480       .  S
C734       C1405   1.490       .  S
O735       Ni743   1.916       .  S
O735        C745   1.279       .  A
O736       Ni743   1.915       .  S
O736        C746   1.281       .  A
O737       Ni743   1.915       .  S
O737        C747   1.279       .  A
O738       Ni743   1.915       .  S
O738        C748   1.281       .  A
O739       Ni744   1.919       .  S
O739        C748   1.281       .  A
O740       Ni744   1.917       .  S
O740        C747   1.283       .  A
O741       Ni744   1.918       .  S
O741        C746   1.282       .  A
O742       Ni744   1.919       .  S
O742        C745   1.280       .  A
Ni743      Ni744   2.386       .  S
C745        C941   1.459       .  S
C746       C1393   1.485       .  S
C747       C1408   1.491       .  S
C748       C1417   1.480       .  S
O750       Ni757   1.918       .  S
O750        C760   1.281       .  A
O751       Ni757   1.915       .  S
O751        C761   1.282       .  A
O752        C762   1.280       .  A
O753        C762   1.282       .  A
O754       Ni758   1.918       .  S
O754        C761   1.281       .  A
O756       Ni758   1.920       .  S
O756        C759   1.280       .  A
Ni757      Ni758   2.388       .  S
C759        C899   1.459       .  S
C760       C1432   1.484       .  S
C761       C1381   1.485       .  S
C762       C1369   1.476       .  S
O763       Ni771   1.911       .  S
O763        C773   1.278       .  A
O764       Ni771   1.918       .  S
O764        C774   1.281       .  A
O765       Ni771   1.916       .  S
O765        C775   1.281       .  A
O766       Ni771   1.917       .  S
O766        C776   1.281       .  A
O767       Ni772   1.917       .  S
O767        C776   1.282       .  A
O768       Ni772   1.916       .  S
O768        C775   1.281       .  A
O769       Ni772   1.917       .  S
O769        C774   1.282       .  A
O770       Ni772   1.917       .  S
O770        C773   1.280       .  A
Ni771      Ni772   2.388       .  S
C773        C913   1.454       .  S
C774       C1396   1.487       .  S
C775       C1372   1.476       .  S
C776       C1384   1.487       .  S
O778       Ni785   1.918       .  S
O779       Ni785   1.915       .  S
O779        C789   1.281       .  A
O780        C790   1.281       .  A
O781        C790   1.282       .  A
O782       Ni786   1.912       .  S
O782        C789   1.280       .  A
O783        C788   1.281   1_556  A
O784       Ni786   1.919       .  S
O784        C787   1.280       .  A
Ni785      Ni786   2.390       .  S
C787        C985   1.459       .  S
C789       C1345   1.476       .  S
C790       C1333   1.483       .  S
O791       Ni799   1.917       .  S
O791        C801   1.280       .  A
O792       Ni799   1.915       .  S
O792        C802   1.280       .  A
O793       Ni799   1.916       .  S
O793        C803   1.281       .  A
O794       Ni799   1.913       .  S
O794        C804   1.280       .  A
O795       Ni800   1.917       .  S
O795        C804   1.281       .  A
O796       Ni800   1.917       .  S
O796        C803   1.281       .  A
O797       Ni800   1.917       .  S
O797        C802   1.282       .  A
O798       Ni800   1.917       .  S
O798        C801   1.280       .  A
Ni799      Ni800   2.388       .  S
C801        C999   1.459       .  S
C802       C1321   1.485       .  S
C803       C1336   1.482       .  S
C804       C1348   1.478       .  S
O806       Ni813   1.917       .  S
O806        C816   1.281       .  A
O807       Ni813   1.914       .  S
O807        C817   1.281       .  A
O808        C818   1.281       .  A
O809        C818   1.281       .  A
O810       Ni814   1.917       .  S
O810        C817   1.281       .  A
O812       Ni814   1.919       .  S
O812        C815   1.280       .  A
Ni813      Ni814   2.390       .  S
C815        C927   1.459       .  S
C816       C1357   1.479       .  S
C817       C1309   1.477       .  S
C818       C1297   1.474       .  S
O819       Ni827   1.913       .  S
O819        C829   1.279       .  A
O820       Ni827   1.911       .  S
O820        C830   1.279       .  A
O821       Ni827   1.916       .  S
O821        C831   1.281       .  A
O822       Ni827   1.914       .  S
O822        C832   1.281       .  A
O823       Ni828   1.914       .  S
O823        C832   1.281       .  A
O824       Ni828   1.914       .  S
O824        C831   1.281       .  A
O825       Ni828   1.917       .  S
O825        C830   1.282       .  A
O826       Ni828   1.915       .  S
O826        C829   1.280       .  A
Ni827      Ni828   2.390       .  S
C829        C943   1.454       .  S
C830       C1324   1.481       .  S
C831       C1300   1.475       .  S
C832       C1312   1.476       .  S
O834       Ni841   1.912       .  S
O834        C844   1.280       .  A
O835       Ni841   1.917       .  S
O835        C845   1.281       .  A
O836        C846   1.282       .  A
O837        C846   1.281       .  A
O838       Ni842   1.916       .  S
O838        C845   1.281       .  A
O840       Ni842   1.922       .  S
O840        C843   1.281       .  A
Ni841      Ni842   2.390       .  S
C843        C955   1.461       .  S
C844       C1285   1.477       .  S
C845       C1273   1.478       .  S
C846       C1261   1.479       .  S
O847       Ni855   1.911       .  S
O847        C857   1.279       .  A
O848       Ni855   1.912       .  S
O848        C858   1.280       .  A
O849       Ni855   1.914       .  S
O849        C859   1.281       .  A
O850       Ni855   1.914       .  S
O850        C860   1.281       .  A
O851       Ni856   1.920       .  S
O851        C860   1.282       .  A
O852       Ni856   1.919       .  S
O852        C859   1.282       .  A
O853       Ni856   1.913       .  S
O853        C858   1.281       .  A
O854       Ni856   1.912       .  S
O854        C857   1.279       .  A
Ni855      Ni856   2.390       .  S
C857        C969   1.451       .  S
C858       C1249   1.479       .  S
C859       C1264   1.479       .  S
C860       C1276   1.479       .  S
O862       Ni869   1.919       .  S
O862        C872   1.281       .  A
O863       Ni869   1.912       .  S
O863        C873   1.280       .  A
O864        C874   1.280       .  A
O865        C874   1.282       .  A
O866       Ni870   1.918       .  S
O866        C873   1.282       .  A
O868       Ni870   1.914       .  S
O868        C871   1.279       .  A
Ni869      Ni870   2.390       .  S
C871        C983   1.457       .  S
C872       C1288   1.478       .  S
C873       C1237   1.478       .  S
C874       C1228   1.478       .  S
O875       Ni883   1.914       .  S
O875        C885   1.279       .  A
O876       Ni883   1.913       .  S
O876        C886   1.280       .  A
O877       Ni883   1.918       .  S
O877        C887   1.282       .  A
O878       Ni883   1.918       .  S
O878        C888   1.282       .  A
O879       Ni884   1.913       .  S
O879        C888   1.280       .  A
O880       Ni884   1.914       .  S
O880        C887   1.281       .  A
O881       Ni884   1.910       .  S
O881        C886   1.280       .  A
O882       Ni884   1.915       .  S
O882        C885   1.279       .  A
Ni883      Ni884   2.390       .  S
C885        C997   1.455       .  S
C886       C1252   1.478       .  S
C887       C1225   1.478       .  S
C888       C1240   1.477       .  S
O889       Ni897   1.914       .  S
O889        C899   1.279       .  A
O890       Ni897   1.915       .  S
O890        C900   1.280       .  A
O891       Ni897   1.916       .  S
O891        C901   1.279       .  A
O892       Ni897   1.914       .  S
O892        C902   1.281       .  A
O893       Ni898   1.916       .  S
O894       Ni898   1.918       .  S
O895       Ni898   1.917       .  S
O896       Ni898   1.919       .  S
C900       C1213   1.479       .  S
C901       C1011   1.458       .  S
C902       C1204   1.478       .  S
O903       Ni911   1.912       .  S
O903        C913   1.279       .  A
O904       Ni911   1.914       .  S
O904        C914   1.281       .  A
O905       Ni911   1.920       .  S
O905        C915   1.280       .  A
O906       Ni911   1.918       .  S
O906        C916   1.282       .  A
O907       Ni912   1.919       .  S
O907        C916   1.281       .  A
O908       Ni912   1.919       .  S
O908        C915   1.281       .  A
O909       Ni912   1.914       .  S
O909        C914   1.281       .  A
O910       Ni912   1.916       .  S
O910        C913   1.280       .  A
Ni911      Ni912   2.391       .  S
C914       C1189   1.479       .  S
C915       C1025   1.462       .  S
C916       C1180   1.480       .  S
O917       Ni925   1.916       .  S
O917        C927   1.280       .  A
O918       Ni925   1.916       .  S
O918        C928   1.281       .  A
O919       Ni925   1.919       .  S
O919        C929   1.280       .  A
O920       Ni925   1.918       .  S
O920        C930   1.281       .  A
O921       Ni926   1.916       .  S
O922       Ni926   1.916       .  S
O923       Ni926   1.915       .  S
O924       Ni926   1.915       .  S
C928       C1165   1.480       .  S
C930       C1216   1.479       .  S
O931       Ni939   1.917       .  S
O931        C941   1.280       .  A
O932       Ni939   1.915       .  S
O932        C942   1.281       .  A
O933       Ni939   1.914       .  S
O933        C943   1.279       .  A
O934       Ni939   1.918       .  S
O934        C944   1.281       .  A
O935       Ni940   1.917       .  S
O935        C944   1.282       .  A
O936       Ni940   1.915       .  S
O936        C943   1.279       .  A
O937       Ni940   1.916       .  S
O937        C942   1.281       .  A
O938       Ni940   1.918       .  S
O938        C941   1.280       .  A
Ni939      Ni940   2.391       .  S
C942       C1192   1.479       .  S
C944       C1153   1.483       .  S
O945       Ni953   1.919       .  S
O946       Ni953   1.916       .  S
O947       Ni953   1.915       .  S
O948       Ni953   1.912       .  S
O949       Ni954   1.916       .  S
O949        C958   1.282       .  A
O950       Ni954   1.915       .  S
O950        C957   1.279       .  A
O951       Ni954   1.917       .  S
O951        C956   1.281       .  A
O952       Ni954   1.918       .  S
O952        C955   1.280       .  A
C956       C1141   1.480       .  S
C957       C1039   1.457       .  S
C958       C1201   1.480       .  S
O959       Ni967   1.910       .  S
O959        C969   1.278       .  A
O960       Ni967   1.910       .  S
O960        C970   1.278       .  A
O961       Ni967   1.920       .  S
O961        C971   1.281       .  A
O962       Ni967   1.923       .  S
O962        C972   1.283       .  A
O963       Ni968   1.915       .  S
O963        C972   1.281       .  A
O964       Ni968   1.916       .  S
O964        C971   1.279       .  A
O965       Ni968   1.917       .  S
O965        C970   1.283       .  A
O966       Ni968   1.914       .  S
O966        C969   1.280       .  A
Ni967      Ni968   2.389       .  S
C970       C1129   1.490       .  S
C971       C1053   1.459       .  S
C972       C1177   1.481       .  S
O973       Ni981   1.920       .  S
O973        C983   1.281       .  A
O974       Ni981   1.920       .  S
O974        C984   1.282       .  A
O975       Ni981   1.916       .  S
O975        C985   1.279       .  A
O976       Ni981   1.917       .  S
O976        C986   1.281       .  A
O977       Ni982   1.918       .  S
O978       Ni982   1.922       .  S
O979       Ni982   1.918       .  S
O980       Ni982   1.918       .  S
C984       C1144   1.481       .  S
C986       C1168   1.479       .  S
O987       Ni995   1.916       .  S
O987        C997   1.280       .  A
O988       Ni995   1.915       .  S
O988        C998   1.280       .  A
O989       Ni995   1.918       .  S
O989        C999   1.280       .  A
O990       Ni995   1.916       .  S
O990       C1000   1.281       .  A
O991       Ni996   1.920       .  S
O991       C1000   1.282       .  A
O992       Ni996   1.917       .  S
O992        C999   1.280       .  A
O993       Ni996   1.911       .  S
O993        C998   1.282       .  A
O994       Ni996   1.913       .  S
O994        C997   1.279       .  A
Ni995      Ni996   2.389       .  S
C998       C1132   1.490       .  S
C1000      C1156   1.481       .  S
O1002     Ni1009   1.919       .  S
O1002      C1012   1.281       .  A
O1003     Ni1009   1.920       .  S
O1003      C1013   1.283       .  A
O1004      C1014   1.281       .  A
O1005      C1014   1.282       .  A
O1006     Ni1010   1.914       .  S
O1006      C1013   1.280       .  A
O1008     Ni1010   1.917       .  S
O1008      C1011   1.280       .  A
Ni1009    Ni1010   2.389       .  S
C1012      C1117   1.482       .  S
C1013      C1105   1.485       .  S
C1014      C1093   1.481       .  S
O1015     Ni1023   1.922       .  S
O1015      C1025   1.281       .  A
O1016     Ni1023   1.922       .  S
O1016      C1026   1.282       .  A
O1017     Ni1023   1.917       .  S
O1017      C1027   1.281       .  A
O1018     Ni1023   1.916       .  S
O1018      C1028   1.280       .  A
O1019     Ni1024   1.919       .  S
O1019      C1028   1.283       .  A
O1020     Ni1024   1.919       .  S
O1020      C1027   1.282       .  A
O1021     Ni1024   1.913       .  S
O1021      C1026   1.280       .  A
O1022     Ni1024   1.917       .  S
O1022      C1025   1.279       .  A
Ni1023    Ni1024   2.388       .  S
C1026      C1084   1.479       .  S
C1027      C1096   1.482       .  S
C1028      C1108   1.486       .  S
O1030     Ni1037   1.915       .  S
O1030      C1040   1.281       .  A
O1031     Ni1037   1.915       .  S
O1031      C1041   1.281       .  A
O1032      C1042   1.283       .  A
O1033      C1042   1.280       .  A
O1034     Ni1038   1.914       .  S
O1034      C1041   1.280       .  A
O1036     Ni1038   1.920       .  S
O1036      C1039   1.280       .  A
Ni1037    Ni1038   2.389       .  S
C1040      C1120   1.482       .  S
C1041      C1072   1.478       .  S
C1042      C1057   1.484       .  S
O1043     Ni1051   1.918       .  S
O1043      C1053   1.280       .  A
O1044     Ni1051   1.918       .  S
O1044      C1054   1.282       .  A
O1045     Ni1051   1.917       .  S
O1045      C1055   1.281       .  A
O1046     Ni1051   1.914       .  S
O1046      C1056   1.281       .  A
O1047     Ni1052   1.914       .  S
O1047      C1056   1.281       .  A
O1048     Ni1052   1.916       .  S
O1048      C1055   1.282       .  A
O1049     Ni1052   1.916       .  S
O1049      C1054   1.281       .  A
O1050     Ni1052   1.917       .  S
O1050      C1053   1.280       .  A
Ni1051    Ni1052   2.389       .  S
C1054      C1081   1.479       .  S
C1055      C1060   1.484       .  S
C1056      C1069   1.477       .  S
C1057      C1058   1.405       .  A
C1057      C1062   1.416       .  A
C1058      C1059   1.402       .  A
C1058      H1067   1.081       .  S
C1059      C1060   1.417       .  A
C1059      S1063   1.802       .  S
C1060      C1061   1.404       .  A
C1061      C1062   1.398       .  A
C1061      H1068   1.082       .  S
C1062      S1064   1.804       .  S
S1063      H1066   1.407       .  S
S1064      H1065   1.408       .  S
C1069      C1070   1.405       .  A
C1069      C1074   1.413       .  A
C1070      C1071   1.403       .  A
C1070      H1079   1.083       .  S
C1071      C1072   1.414       .  A
C1071      S1075   1.809       .  S
C1072      C1073   1.403       .  A
C1073      C1074   1.396       .  A
C1073      H1080   1.084       .  S
C1074      S1076   1.804       .  S
S1075      H1078   1.407       .  S
S1076      H1077   1.408       .  S
C1081      C1082   1.403   1_655  A
C1081      C1086   1.415   1_655  A
C1082      C1083   1.399       .  A
C1082      H1091   1.080   1_455  S
C1083      C1084   1.414       .  A
C1083      S1087   1.804       .  S
C1084      C1085   1.404       .  A
C1085      C1086   1.401       .  A
C1085      H1092   1.080       .  S
C1086      S1088   1.803   1_455  S
S1087      H1090   1.407       .  S
S1088      H1089   1.407       .  S
C1093      C1094   1.404       .  A
C1093      C1098   1.416       .  A
C1094      C1095   1.398       .  A
C1094      H1103   1.084       .  S
C1095      C1096   1.415       .  A
C1095      S1099   1.803       .  S
C1096      C1097   1.405       .  A
C1097      C1098   1.401       .  A
C1097      H1104   1.084       .  S
C1098      S1100   1.803       .  S
S1099      H1102   1.407       .  S
S1100      H1101   1.407       .  S
C1105      C1106   1.405       .  A
C1105      C1110   1.416       .  A
C1106      C1107   1.400       .  A
C1106      H1115   1.083       .  S
C1107      C1108   1.417       .  A
C1107      S1111   1.803       .  S
C1108      C1109   1.405       .  A
C1109      C1110   1.399       .  A
C1109      H1116   1.083       .  S
C1110      S1112   1.803       .  S
S1111      H1114   1.408       .  S
S1112      H1113   1.408       .  S
C1117      C1118   1.404       .  A
C1118      C1119   1.399       .  A
C1118      H1127   1.084       .  S
C1119      C1120   1.415   1_455  A
C1119      S1123   1.802   1_455  S
C1121      C1122   1.400       .  A
C1121      H1128   1.083   1_455  S
C1122      S1124   1.803       .  S
S1123      H1126   1.406       .  S
S1124      H1125   1.407       .  S
C1129      C1130   1.407       .  A
C1129      C1134   1.419       .  A
C1130      C1131   1.399       .  A
C1130      H1139   1.082       .  S
C1131      C1132   1.418       .  A
C1131      S1135   1.802       .  S
C1132      C1133   1.406       .  A
C1133      C1134   1.396       .  A
C1133      H1140   1.082       .  S
C1134      S1136   1.803       .  S
S1135      H1138   1.408       .  S
S1136      H1137   1.404       .  S
C1141      C1142   1.405       .  A
C1142      C1143   1.400       .  A
C1142      H1151   1.084       .  S
C1143      C1144   1.414       .  A
C1143      S1147   1.803       .  S
C1145      C1146   1.399       .  A
C1145      H1152   1.083       .  S
C1146      S1148   1.804       .  S
S1147      H1150   1.407       .  S
S1148      H1149   1.408       .  S
C1153      C1154   1.405       .  A
C1153      C1158   1.415       .  A
C1154      C1155   1.398       .  A
C1154      H1163   1.083       .  S
C1155      C1156   1.414       .  A
C1155      S1159   1.804       .  S
C1156      C1157   1.404       .  A
C1157      C1158   1.401       .  A
C1157      H1164   1.083       .  S
C1158      S1160   1.799       .  S
S1159      H1162   1.408       .  S
S1160      H1161   1.407       .  S
C1165      C1170   1.412       .  A
C1166      C1167   1.400       .  A
C1166      H1175   1.084       .  S
C1167      S1171   1.803       .  S
C1168      C1169   1.403       .  A
C1169      C1170   1.399       .  A
C1169      H1176   1.084       .  S
C1170      S1172   1.799       .  S
S1171      H1174   1.407       .  S
S1172      H1173   1.407       .  S
C1177      C1178   1.404       .  A
C1177      C1182   1.414       .  A
C1178      C1179   1.400       .  A
C1178      H1187   1.083       .  S
C1179      C1180   1.414       .  A
C1179      S1183   1.804       .  S
C1180      C1181   1.404       .  A
C1181      C1182   1.401       .  A
C1181      H1188   1.083       .  S
C1182      S1184   1.801       .  S
S1183      H1186   1.407       .  S
S1184      H1185   1.407       .  S
C1189      C1190   1.404       .  A
C1189      C1194   1.415       .  A
C1190      C1191   1.398       .  A
C1190      H1199   1.084       .  S
C1191      C1192   1.415       .  A
C1191      S1195   1.804       .  S
C1192      C1193   1.404       .  A
C1193      C1194   1.399       .  A
C1193      H1200   1.084       .  S
C1194      S1196   1.803       .  S
S1195      H1198   1.407       .  S
S1196      H1197   1.408       .  S
C1201      C1202   1.403       .  A
C1202      C1203   1.397       .  A
C1202      H1211   1.084       .  S
C1203      C1204   1.413       .  A
C1203      S1207   1.804       .  S
C1205      C1206   1.402       .  A
C1205      H1212   1.083       .  S
C1206      S1208   1.808       .  S
S1207      H1210   1.407       .  S
S1208      H1209   1.407       .  S
C1213      C1218   1.415       .  A
C1214      C1215   1.399       .  A
C1214      H1223   1.084       .  S
C1215      S1219   1.804       .  S
C1216      C1217   1.404       .  A
C1217      C1218   1.401       .  A
C1217      H1224   1.083       .  S
C1218      S1220   1.803       .  S
S1219      H1222   1.408       .  S
S1220      H1221   1.407       .  S
C1225      C1226   1.403       .  A
C1225      C1230   1.414       .  A
C1226      C1227   1.400       .  A
C1226      H1235   1.084       .  S
C1227      C1228   1.415       .  A
C1227      S1231   1.804       .  S
C1228      C1229   1.403       .  A
C1229      C1230   1.399       .  A
C1229      H1236   1.084       .  S
C1230      S1232   1.804       .  S
S1231      H1234   1.407       .  S
S1232      H1233   1.407       .  S
C1237      C1238   1.403       .  A
C1237      C1242   1.414       .  A
C1238      C1239   1.400       .  A
C1238      H1247   1.084       .  S
C1239      C1240   1.415       .  A
C1239      S1243   1.803       .  S
C1240      C1241   1.402       .  A
C1241      C1242   1.398       .  A
C1241      H1248   1.084       .  S
C1242      S1244   1.800       .  S
S1243      H1246   1.407       .  S
S1244      H1245   1.407       .  S
C1249      C1250   1.405       .  A
C1249      C1254   1.416       .  A
C1250      C1251   1.397       .  A
C1250      H1259   1.081       .  S
C1251      C1252   1.414   1_545  A
C1251      S1255   1.803   1_545  S
C1252      C1253   1.404   1_565  A
C1253      C1254   1.397       .  A
C1253      H1260   1.081   1_545  S
C1254      S1256   1.803       .  S
S1255      H1258   1.408       .  S
S1256      H1257   1.407       .  S
C1261      C1262   1.405       .  A
C1261      C1266   1.414       .  A
C1262      C1263   1.400       .  A
C1262      H1271   1.083       .  S
C1263      C1264   1.415       .  A
C1263      S1267   1.804       .  S
C1264      C1265   1.404       .  A
C1265      C1266   1.398       .  A
C1265      H1272   1.083       .  S
C1266      S1268   1.803       .  S
S1267      H1270   1.407       .  S
S1268      H1269   1.407       .  S
C1273      C1274   1.403       .  A
C1273      C1278   1.415       .  A
C1274      C1275   1.399       .  A
C1274      H1283   1.083       .  S
C1275      C1276   1.415       .  A
C1275      S1279   1.803       .  S
C1276      C1277   1.404       .  A
C1277      C1278   1.400       .  A
C1277      H1284   1.083       .  S
C1278      S1280   1.804       .  S
S1279      H1282   1.407       .  S
S1280      H1281   1.406       .  S
C1285      C1290   1.414       .  A
C1286      C1287   1.399       .  A
C1286      H1295   1.082       .  S
C1287      S1291   1.803   1_545  S
C1288      C1289   1.403   1_565  A
C1289      C1290   1.396       .  A
C1289      H1296   1.082   1_545  S
C1290      S1292   1.804       .  S
S1291      H1294   1.408       .  S
S1292      H1293   1.406       .  S
C1297      C1298   1.403       .  A
C1297      C1302   1.413       .  A
C1298      C1299   1.399       .  A
C1298      H1307   1.082       .  S
C1299      C1300   1.413       .  A
C1299      S1303   1.804       .  S
C1300      C1301   1.403       .  A
C1301      C1302   1.399       .  A
C1301      H1308   1.081       .  S
C1302      S1304   1.804       .  S
S1303      H1306   1.407       .  S
S1304      H1305   1.407       .  S
C1309      C1310   1.403       .  A
C1309      C1314   1.415       .  A
C1310      C1311   1.397       .  A
C1310      H1319   1.084       .  S
C1311      C1312   1.413       .  A
C1311      S1315   1.803       .  S
C1312      C1313   1.404       .  A
C1313      C1314   1.399       .  A
C1313      H1320   1.084       .  S
C1314      S1316   1.804       .  S
S1315      H1318   1.407       .  S
S1316      H1317   1.407       .  S
C1321      C1322   1.406   1_655  A
C1321      C1326   1.416   1_655  A
C1322      C1323   1.398       .  A
C1322      H1331   1.085   1_455  S
C1323      C1324   1.415       .  A
C1323      S1327   1.803       .  S
C1324      C1325   1.403       .  A
C1325      C1326   1.398       .  A
C1325      H1332   1.085       .  S
C1326      S1328   1.798   1_455  S
S1327      H1330   1.407       .  S
S1328      H1329   1.407       .  S
C1333      C1334   1.405       .  A
C1333      C1338   1.416       .  A
C1334      C1335   1.399       .  A
C1334      H1343   1.083       .  S
C1335      C1336   1.415       .  A
C1335      S1339   1.804       .  S
C1336      C1337   1.404       .  A
C1337      C1338   1.400       .  A
C1337      H1344   1.083       .  S
C1338      S1340   1.803       .  S
S1339      H1342   1.408       .  S
S1340      H1341   1.408       .  S
C1345      C1346   1.402       .  A
C1345      C1350   1.414       .  A
C1346      C1347   1.397       .  A
C1346      H1355   1.084       .  S
C1347      C1348   1.414       .  A
C1347      S1351   1.800       .  S
C1348      C1349   1.403       .  A
C1349      C1350   1.399       .  A
C1349      H1356   1.084       .  S
C1350      S1352   1.800       .  S
S1351      H1354   1.406       .  S
S1352      H1353   1.407       .  S
C1357      C1362   1.414       .  A
C1358      C1359   1.400       .  A
C1358      H1367   1.084       .  S
C1359      S1363   1.803   1_455  S
C1360      C1361   1.404   1_655  A
C1361      C1362   1.401       .  A
C1361      H1368   1.084   1_455  S
C1362      S1364   1.803       .  S
S1363      H1366   1.407       .  S
S1364      H1365   1.407       .  S
C1369      C1370   1.403       .  A
C1369      C1374   1.413       .  A
C1370      C1371   1.398       .  A
C1370      H1379   1.084       .  S
C1371      C1372   1.413       .  A
C1371      S1375   1.804       .  S
C1372      C1373   1.404       .  A
C1373      C1374   1.400       .  A
C1373      H1380   1.083       .  S
C1374      S1376   1.803       .  S
S1375      H1378   1.407       .  S
S1376      H1377   1.407       .  S
C1381      C1382   1.405       .  A
C1381      C1386   1.416       .  A
C1382      C1383   1.398       .  A
C1382      H1391   1.084       .  S
C1383      C1384   1.416       .  A
C1383      S1387   1.802       .  S
C1384      C1385   1.407       .  A
C1385      C1386   1.400       .  A
C1385      H1392   1.084       .  S
C1386      S1388   1.803       .  S
S1387      H1390   1.407       .  S
S1388      H1389   1.408       .  S
C1393      C1394   1.405   1_565  A
C1393      C1398   1.414   1_565  A
C1394      C1395   1.405       .  A
C1394      H1403   1.082   1_545  S
C1395      C1396   1.417       .  A
C1395      S1399   1.808       .  S
C1396      C1397   1.405       .  A
C1397      C1398   1.398       .  A
C1397      H1404   1.083       .  S
C1398      S1400   1.803   1_545  S
S1399      H1402   1.407       .  S
S1400      H1401   1.408       .  S
C1405      C1406   1.405       .  A
C1405      C1410   1.419       .  A
C1406      C1407   1.398       .  A
C1406      H1415   1.087       .  S
C1407      C1408   1.418       .  A
C1407      S1411   1.801       .  S
C1408      C1409   1.406       .  A
C1409      C1410   1.403       .  A
C1409      H1416   1.085       .  S
C1410      S1412   1.810       .  S
S1411      H1414   1.408       .  S
S1412      H1413   1.407       .  S
C1417      C1418   1.404       .  A
C1417      C1422   1.415       .  A
C1418      C1419   1.398       .  A
C1418      H1427   1.086       .  S
C1419      C1420   1.415       .  A
C1419      S1423   1.804       .  S
C1420      C1421   1.404       .  A
C1421      C1422   1.400       .  A
C1421      H1428   1.086       .  S
C1422      S1424   1.803       .  S
S1423      H1426   1.407       .  S
S1424      H1425   1.408       .  S
C1429      C1434   1.414   1_565  A
C1430      C1431   1.400       .  A
C1430      H1439   1.083   1_545  S
C1431      S1435   1.799       .  S
C1432      C1433   1.405       .  A
C1433      C1434   1.400       .  A
C1433      H1440   1.083       .  S
C1434      S1436   1.803   1_545  S
S1435      H1438   1.407       .  S
S1436      H1437   1.408       .  S
