geometry optimzed in LAMMPS
_audit_creation_date              2020-11-30 
_audit_creation_method            'lammps2cif' 
_symmetry_space_group_name_H-M    'P1' 
_symmetry_Int_Tables_number       1 
_symmetry_cell_setting            triclinic 
loop_ 
_symmetry_equiv_pos_as_xyz 
  x,y,z 
_cell_length_a                    27.35644561674861 
_cell_length_b                    27.361487084017806 
_cell_length_c                    31.267624533497486 
_cell_angle_alpha                 90.00577813800493 
_cell_angle_beta                  89.99103464585988 
_cell_angle_gamma                 120.04450282031642 
loop_ 
_atom_site_label 
_atom_site_type_symbol 
_atom_site_fract_x 
_atom_site_fract_y 
_atom_site_fract_z 
_atom_site_charge 
O1          O  0.17504783  0.56305359  0.09343103    -0.86790
O2          O  0.19475185  0.58235536  0.18373525    -0.83840
C3          C  0.15198476  0.58561116  0.19038006     0.96670
O4          O  0.10663509  0.54863696  0.17433698    -0.83870
O5          O  0.03542611  0.45490008  0.12567313    -0.86510
C6          C  0.02433300  0.41736411  0.09720154     1.01200
O7          O  0.05337822  0.39345248  0.09515728    -0.79280
O8          O  0.14613529  0.48185747  0.05595156    -0.79460
C9          C  0.15538508  0.53324116  0.05951862     1.01150
O10         O  0.24900505  0.52814797  0.09428610    -0.86790
O11         O  0.22966063  0.50841038  0.18458919    -0.83850
C12         C  0.19983167  0.48874491  0.21849872     0.96690
O13         O  0.14843630  0.47949200  0.22205964    -0.83880
O14         O  0.06003967  0.38675610  0.18283639    -0.86480
C15         C  0.08396836  0.35772734  0.18079097     1.01160
O16         O  0.12152203  0.36883758  0.15232343    -0.79300
O17         O  0.21528100  0.44004991  0.10368725    -0.79450
C18         C  0.25226239  0.48538939  0.08764217     1.01130
Cr19       Cr  0.20712465  0.54050077  0.13901024     1.93740
Cr20       Cr  0.09093735  0.46837773  0.17432114     1.93210
Cr21       Cr  0.13500954  0.42435201  0.10368401     1.39100
O22         O  0.14369879  0.47708710  0.13900487    -1.24540
O23         O  0.05310158  0.15567400  0.20454930    -0.86790
O24         O  0.05281675  0.13621745  0.29484879    -0.83840
C25         C  0.09891415  0.17896270  0.30145106     0.96670
O26         O  0.10738865  0.22430555  0.95204014    -0.83870
O27         O  0.08488512  0.29549975  0.23666855    -0.86510
C28         C  0.05839627  0.30656030  0.20822464     1.01200
O29         O  0.00540360  0.27746442  0.20619263    -0.79280
O30         O  0.00086665  0.18460953  0.16707929    -0.79460
C31         C  0.04295249  0.17528570  0.17062595     1.01150
O32         O  0.94413388  0.08182773  0.20559178    -0.86790
O33         O  0.94392719  0.10140069  0.29582192    -0.83850
C34         C  0.95425718  0.13125656  0.99638327     0.96690
O35         O  0.99648935  0.18264131  0.99987041    -0.83880
O36         O  0.99220997  0.27098785  0.29391075    -0.86480
C37         C  0.93921555  0.24706043  0.29192176     1.01160
O38         O  0.91267182  0.20947937  0.26349108    -0.79300
O39         O  0.88986765  0.11564732  0.21493409    -0.79450
C40         C  0.89814001  0.07862350  0.19893096     1.01130
Cr41       Cr  0.99850749  0.12378919  0.25020093     1.93740
Cr42       Cr  0.04286148  0.24005153  0.28537963     1.93210
Cr43       Cr  0.95458127  0.19587575  0.21482793     1.39100
O44         O  0.99866809  0.18724119  0.25012715    -1.24540
O45         O  0.82223470  0.38644833  0.07342290    -0.86790
O46         O  0.80277947  0.38614065  0.31644847    -0.83840
C47         C  0.84552392  0.43223929  0.30984452     0.96670
O48         O  0.89087833  0.44072161  0.32592226    -0.83870
O49         O  0.96209626  0.41826056  0.37464671    -0.86510
C50         C  0.97316534  0.39178562  0.06976244     1.01200
O51         O  0.94408358  0.33880111  0.07179104    -0.79280
O52         O  0.85120814  0.33425691  0.11090382    -0.79460
C53         C  0.84187182  0.37632768  0.10734667     1.01150
O54         O  0.74840146  0.27748898  0.07240239    -0.86790
O55         O  0.76799508  0.27727573  0.31550064    -0.83850
C56         C  0.79787011  0.28759889  0.28160944     0.96690
O57         O  0.84925440  0.32983939  0.27811706    -0.83880
O58         O  0.93761304  0.32559201  0.31741912    -0.86480
C59         C  0.91367600  0.27260411  0.98607380     1.01160
O60         O  0.87609168  0.24606822  0.01450906    -0.79300
O61         O  0.78225245  0.22325708  0.06305963    -0.79450
C62         C  0.74521220  0.23150960  0.07906486     1.01130
Cr63       Cr  0.79035993  0.33185157  0.02777908     1.93740
Cr64       Cr  0.90665422  0.37622594  0.32593492     1.93210
Cr65       Cr  0.86248386  0.28797355  0.06316417     1.39100
O66         O  0.85383562  0.33203730  0.02785780    -1.24540
O67         O  0.80261754  0.41512037  0.14981004    -0.86790
O68         O  0.82230742  0.43441362  0.24011569    -0.83840
C69         C  0.84197100  0.46422452  0.27402874     0.96670
O70         O  0.85122817  0.51561133  0.27759472    -0.83870
O71         O  0.94399047  0.60401809  0.23839243    -0.86510
C72         C  0.97303553  0.58010677  0.23634802     1.01200
O73         O  0.96194392  0.54257154  0.20787626    -0.79280
O74         O  0.89073420  0.44883471  0.15921010    -0.79460
C75         C  0.84538335  0.41186145  0.14316705     1.01150
O76         O  0.76771986  0.48907462  0.14895202    -0.86790
O77         O  0.74836069  0.46933190  0.23925366    -0.83850
C78         C  0.74511066  0.51209409  0.24589962     0.96690
O79         O  0.78209406  0.55743081  0.22985356    -0.83880
O80         O  0.87585590  0.62864021  0.18122379    -0.86480
C81         C  0.91341031  0.63975134  0.15275670     1.01160
O82         O  0.93733685  0.61072013  0.15071015    -0.79300
O83         O  0.84894537  0.51798486  0.11148529    -0.79450
C84         C  0.79755249  0.50873768  0.11504394     1.01130
Cr85       Cr  0.79024353  0.45697636  0.19453271     1.93740
Cr86       Cr  0.86236177  0.57312186  0.22986212     1.93210
Cr87       Cr  0.90643687  0.52909630  0.15922642     1.39100
O88         O  0.85367312  0.52038721  0.19454116    -1.24540
O89         O  0.19457718  0.61132079  0.01709975    -0.86790
O90         O  0.17512523  0.61101470  0.26012661    -0.83840
C91         C  0.15549311  0.62114036  0.22620247     0.96670
O92         O  0.14615952  0.66321281  0.22264673    -0.83870
O93         O  0.05328450  0.65866920  0.26175847    -0.86510
C94         C  0.02420122  0.60568480  0.26378776     1.01200
O95         O  0.03526269  0.57920965  0.95890904    -0.79280
O96         O  0.10647653  0.55674501  0.00762927    -0.79460
C97         C  0.15183125  0.56522420  0.02370373     1.01150
O98         O  0.22936827  0.72018636  0.01805374    -0.86790
O99         O  0.24896363  0.71997241  0.26115304    -0.83850
C100        C  0.25215558  0.76595298  0.25449169     0.96690
O101        O  0.21511611  0.77420732  0.27049573    -0.83880
O102        O  0.12127884  0.75140090  0.31904199    -0.86480
C103        C  0.08369517  0.72486762  0.34747779     1.01160
O104        O  0.05975346  0.67188245  0.01613531    -0.79300
O105        O  0.14810849  0.66762688  0.05543699    -0.79450
C106        C  0.19949464  0.70986413  0.05194551     1.01130
Cr107      Cr  0.20700084  0.66560832  0.30577277     1.93740
Cr108      Cr  0.13488402  0.70949438  0.27038744     1.93210
Cr109      Cr  0.09070671  0.62124380  0.00761880     1.39100
O110        O  0.14352771  0.66542774  0.30569397    -1.24540
O111        O  0.94456791  0.86128101  0.03871575    -0.86790
O112        O  0.94429195  0.84181791  0.12901345    -0.83840
C113        C  0.95444394  0.82220565  0.16293509     0.96670
O114        O  0.99652722  0.81287762  0.16647728    -0.83870
O115        O  0.99197692  0.72001840  0.12735922    -0.86510
C116        C  0.93898440  0.69092207  0.12532517     1.01200
O117        O  0.91249653  0.70198770  0.09688332    -0.79280
O118        O  0.89000434  0.77319629  0.38152322    -0.79460
C119        C  0.89847092  0.81853621  0.03211167     1.01150
O120        O  0.05345622  0.89609447  0.03773429    -0.86790
O121        O  0.05326050  0.91565986  0.12796428    -0.83850
C122        C  0.09925290  0.91885989  0.13462253     0.96690
O123        O  0.10752118  0.88183394  0.11861793    -0.83880
O124        O  0.08470548  0.78799873  0.07005839    -0.86480
C125        C  0.05815830  0.75042049  0.04162657     1.01160
O126        O  0.00516490  0.72650181  0.03963446    -0.79300
O127        O  0.00089674  0.81484980  0.33368681    -0.79450
C128        C  0.04313252  0.86623288  0.33717257     1.01130
Cr129      Cr  0.99888096  0.87370280  0.08335887     1.93740
Cr130      Cr  0.04280350  0.80160724  0.11872405     1.93210
Cr131      Cr  0.95451898  0.75744209  0.04817418     1.39100
O132        O  0.99871714  0.81024839  0.08342775    -1.24540
O133        O  0.38641340  0.82231995  0.09344066    -0.86790
O134        O  0.38613008  0.80286148  0.18373997    -0.83840
C135        C  0.43222976  0.84560425  0.19034190     0.96670
O136        O  0.44070307  0.89094713  0.17426380    -0.83870
O137        O  0.41820983  0.96215274  0.12556341    -0.86510
C138        C  0.39172162  0.97321784  0.09712170     1.01200
O139        O  0.33872914  0.94412359  0.09508916    -0.79280
O140        O  0.33418473  0.85126514  0.05597298    -0.79460
C141        C  0.37626671  0.84193481  0.05951798     1.01150
O142        O  0.27744416  0.74848265  0.09448535    -0.86790
O143        O  0.27724256  0.76805552  0.18471493    -0.83850
C144        C  0.28757197  0.79791518  0.21860880     0.96690
O145        O  0.32980901  0.84929694  0.22209553    -0.83880
O146        O  0.32553998  0.93764480  0.18280951    -0.86480
C147        C  0.27254609  0.91372420  0.18081903     1.01160
O148        O  0.24599910  0.87614456  0.15238794    -0.79300
O149        O  0.22318488  0.78231008  0.10382918    -0.79450
C150        C  0.23145284  0.74528403  0.08782492     1.01130
Cr151      Cr  0.33182064  0.79043965  0.13909339     1.93740
Cr152      Cr  0.37618598  0.90670287  0.17427386     1.93210
Cr153      Cr  0.28790332  0.86253577  0.10372348     1.39100
O154        O  0.33198805  0.85389534  0.13902119    -1.24540
O155        O  0.15558493  0.05313674  0.29564741    -0.86790
O156        O  0.13613397  0.05282969  0.20534037    -0.83840
C157        C  0.17888133  0.09892623  0.19873743     0.96670
O158        O  0.22423394  0.10740360  0.21481482    -0.83870
O159        O  0.29544420  0.08493551  0.26353875    -0.86510
C160        C  0.30650558  0.05845946  0.29199067     1.01200
O161        O  0.27742040  0.00547507  0.29401966    -0.79280
O162        O  0.18454909  0.00094029  0.99979717    -0.79460
C163        C  0.17522192  0.04301672  0.99623924     1.01150
O164        O  0.08174295  0.94417825  0.29462700    -0.86790
O165        O  0.10133769  0.94396208  0.20439204    -0.83850
C166        C  0.13121203  0.95428175  0.17050086     0.96690
O167        O  0.18259877  0.99651843  0.16700897    -0.83880
O168        O  0.27095250  0.99226221  0.20631275    -0.86480
C169        C  0.24700946  0.93927531  0.20830108     1.01160
O170        O  0.20942441  0.91274281  0.23673638    -0.79300
O171        O  0.11558444  0.88994359  0.95195118    -0.79450
C172        C  0.07854896  0.89819639  0.30128868     1.01130
Cr173      Cr  0.12370621  0.99854039  0.25000371     1.93740
Cr174      Cr  0.24000076  0.04290245  0.21482742     1.93210
Cr175      Cr  0.19582032  0.95465190  0.28539038     1.39100
O176        O  0.18717838  0.99871883  0.25008328    -1.24540
O177        O  0.56298998  0.17505310  0.07349046    -0.86790
O178        O  0.58234680  0.19479390  0.31652340    -0.83840
C179        C  0.58559391  0.15203025  0.30987687     0.96670
O180        O  0.54860722  0.10669357  0.32592071    -0.83870
O181        O  0.45484612  0.03549134  0.37455205    -0.86510
C182        C  0.41729516  0.02438629  0.06968926     1.01200
O183        O  0.39336938  0.05341816  0.07173526    -0.79280
O184        O  0.48176759  0.14614816  0.11096035    -0.79460
C185        C  0.53315925  0.15539183  0.10739949     1.01150
O186        O  0.52810006  0.24901331  0.07263928    -0.86790
O187        O  0.50840678  0.22972061  0.31566573    -0.83850
C188        C  0.48873925  0.19991122  0.28175234     0.96690
O189        O  0.47947813  0.14852327  0.27818401    -0.83880
O190        O  0.38671347  0.06011962  0.31738623    -0.86480
C191        C  0.35767050  0.08403534  0.98610071     1.01160
O192        O  0.36876616  0.12157206  0.01457240    -0.79300
O193        O  0.43998431  0.21530703  0.06324122    -0.79450
C194        C  0.48533732  0.25227713  0.07928405     1.01130
Cr195      Cr  0.54046631  0.20715547  0.02791297     1.93740
Cr196      Cr  0.46834189  0.09101012  0.32591469     1.93210
Cr197      Cr  0.42427439  0.13504252  0.06322151     1.39100
O198        O  0.47703476  0.14374759  0.02790534    -1.24540
O199        O  0.86126620  0.94465645  0.12820802    -0.86790
O200        O  0.84180679  0.94435231  0.03790153    -0.83840
C201        C  0.82217281  0.95448202  0.33731362     0.96670
O202        O  0.81283662  0.99655262  0.33375834    -0.83870
O203        O  0.71996365  0.99200231  0.03953773    -0.86510
C204        C  0.69088036  0.93901751  0.04156619     1.01200
O205        O  0.70194743  0.91254223  0.07001544    -0.79280
O206        O  0.77316630  0.89007940  0.11873693    -0.79460
C207        C  0.81852033  0.89856005  0.13481397     1.01150
O208        O  0.89605634  0.05352164  0.12916077    -0.86790
O209        O  0.91564579  0.05331035  0.03892571    -0.83850
C210        C  0.91883756  0.09929122  0.03226512     0.96690
O211        O  0.88179294  0.10754869  0.38160293    -0.83880
O212        O  0.78795852  0.08473354  0.09682214    -0.86480
C213        C  0.75037399  0.05819680  0.12525690     1.01160
O214        O  0.72643557  0.00521032  0.12724418    -0.79300
O215        O  0.81479632  0.00096195  0.16654423    -0.79450
C216        C  0.86618259  0.04319986  0.16305246     1.01130
Cr217      Cr  0.87368640  0.99894594  0.08354693     1.93740
Cr218      Cr  0.80156471  0.04282996  0.04816546     1.93210
Cr219      Cr  0.75739301  0.95457621  0.11872645     1.39100
O220        O  0.81021242  0.99876402  0.08347038    -1.24540
O221        O  0.41503549  0.80266749  0.01704352    -0.86790
O222        O  0.43437959  0.82239672  0.26007332    -0.83840
C223        C  0.46420923  0.84205810  0.22616376     0.96670
O224        O  0.51560354  0.85130761  0.22260430    -0.83870
O225        O  0.60400358  0.94404325  0.26182507    -0.86510
C226        C  0.58007860  0.97307554  0.26387009     1.01200
O227        O  0.54252568  0.96196967  0.95900503    -0.79280
O228        O  0.44876726  0.89076660  0.00764157    -0.79460
C229        C  0.41178321  0.84542896  0.02368683     1.01150
O230        O  0.48898667  0.76775433  0.01790340    -0.86790
O231        O  0.46928092  0.74844628  0.26093287    -0.83850
C232        C  0.51204669  0.74518817  0.25428803     0.96690
O233        O  0.55739690  0.78216028  0.27033195    -0.83880
O234        O  0.62861291  0.87589982  0.31899285    -0.86480
C235        C  0.63970961  0.91343907  0.34746261     1.01160
O236        O  0.61066720  0.93735255  0.01617185    -0.79300
O237        O  0.51790664  0.84895406  0.05537968    -0.79450
C238        C  0.50865253  0.79756887  0.05181471     1.01130
Cr239      Cr  0.45691232  0.79030739  0.30565503     1.93740
Cr240      Cr  0.57310124  0.86242160  0.27034401     1.93210
Cr241      Cr  0.52903595  0.90645738  0.00764523     1.39100
O242        O  0.52034111  0.85371867  0.30565926    -1.24540
O243        O  0.61123415  0.19458971  0.14982302    -0.86790
O244        O  0.61095445  0.17513187  0.24012062    -0.83840
C245        C  0.62110570  0.15552131  0.27404354     0.96670
O246        O  0.66318914  0.14619338  0.27758708    -0.83870
O247        O  0.65864569  0.05333643  0.23846982    -0.86510
C248        C  0.60565315  0.02424185  0.23643673     1.01200
O249        O  0.57916529  0.03530385  0.20799320    -0.79280
O250        O  0.55666734  0.10650218  0.15929498    -0.79460
C251        C  0.56513707  0.15184516  0.14322031     1.01150
O252        O  0.72012223  0.22940393  0.14884244    -0.86790
O253        O  0.71992159  0.24897473  0.23907150    -0.83850
C254        C  0.76591422  0.25217671  0.24573133     0.96690
O255        O  0.77418491  0.21515155  0.22972889    -0.83880
O256        O  0.75137662  0.12132023  0.18117162    -0.86480
C257        C  0.72483258  0.08374172  0.15273956     1.01160
O258        O  0.67183848  0.05981689  0.15074873    -0.79300
O259        O  0.66756261  0.14816130  0.11146197    -0.79450
C260        C  0.70979590  0.19954526  0.11494831     1.01130
Cr261      Cr  0.66554525  0.20701462  0.19446621     1.93740
Cr262      Cr  0.70946985  0.13492466  0.22983560     1.93210
Cr263      Cr  0.62118816  0.09075361  0.15928384     1.39100
O264        O  0.66538312  0.14356178  0.19453755    -1.24540
O265        O  0.52793313  0.27799829  0.23933722    -0.86790
O266        O  0.50848969  0.27769281  0.14902847    -0.83840
C267        C  0.48885394  0.28781426  0.11510422     0.96670
O268        O  0.47952052  0.32988695  0.11154654    -0.83870
O269        O  0.38664513  0.32534798  0.15065371    -0.86510
C270        C  0.35756053  0.27236370  0.15268104     1.01200
O271        O  0.36862222  0.24588588  0.18113136    -0.79280
O272        O  0.43983405  0.22341924  0.22986003    -0.79460
C273        C  0.48518755  0.23189977  0.24593869     1.01150
O274        O  0.56271902  0.38686344  0.24028656    -0.86790
O275        O  0.58232514  0.38665212  0.15005296    -0.83850
C276        C  0.58551501  0.43263169  0.14338964     0.96690
O277        O  0.54847571  0.44088491  0.15939526    -0.83880
O278        O  0.45463457  0.41807708  0.20793924    -0.86480
C279        C  0.41704644  0.39154204  0.23637212     1.01160
O280        O  0.39310525  0.33855496  0.23835911    -0.79300
O281        O  0.48145648  0.33429914  0.27766627    -0.79450
C282        C  0.53284128  0.37653879  0.27417638     1.01130
Cr283      Cr  0.54036024  0.33228773  0.19467435     1.93740
Cr284      Cr  0.46824384  0.37617133  0.15928522     1.93210
Cr285      Cr  0.42406110  0.28791720  0.22984541     1.39100
O286        O  0.47688550  0.33210412  0.19459194    -1.24540
O287        O  0.13597151  0.08181006  0.03870446    -0.86790
O288        O  0.15566944  0.10110438  0.12900883    -0.83840
C289        C  0.17533255  0.13091384  0.16292248     0.96670
O290        O  0.18458992  0.18230033  0.16649003    -0.83870
O291        O  0.27735220  0.27070435  0.12728642    -0.86510
C292        C  0.30639466  0.24679007  0.12524079     1.01200
O293        O  0.29530111  0.20925650  0.09676719    -0.79280
O294        O  0.22408319  0.11551876  0.38143361    -0.79460
C295        C  0.17873620  0.07855022  0.03205985     1.01150
O296        O  0.10107258  0.15576247  0.03784933    -0.86790
O297        O  0.08172212  0.13602155  0.12815032    -0.83850
C298        C  0.07846995  0.17878244  0.13479553     0.96690
O299        O  0.11545511  0.22412130  0.11875314    -0.83880
O300        O  0.20921368  0.29532820  0.07012153    -0.86480
C301        C  0.24676437  0.30643667  0.04165217     1.01160
O302        O  0.27069233  0.27740709  0.03960528    -0.79300
O303        O  0.18228899  0.18466854  0.33371162    -0.79450
C304        C  0.13089518  0.17541938  0.33727238     1.01130
Cr305      Cr  0.12360164  0.12366625  0.08342837     1.93740
Cr306      Cr  0.19572268  0.23981082  0.11875869     1.93210
Cr307      Cr  0.23979173  0.19578405  0.04811922     1.39100
O308        O  0.18703084  0.18707650  0.08343592    -1.24540
O309        O  0.27791231  0.52794420  0.26092024    -0.86790
O310        O  0.27763488  0.50850026  0.01788806    -0.83840
C311        C  0.28778227  0.48888756  0.05181170     0.96670
O312        O  0.32986587  0.47955974  0.05535785    -0.83870
O313        O  0.32532584  0.38669984  0.01624900    -0.86510
C314        C  0.27233014  0.35760100  0.34755076     1.01200
O315        O  0.24584031  0.36866088  0.31910704    -0.79280
O316        O  0.22334178  0.43985803  0.27039872    -0.79460
C317        C  0.23181351  0.48519993  0.25431939     1.01150
O318        O  0.38680012  0.56275262  0.25994491    -0.86790
O319        O  0.38660374  0.58233939  0.01683864    -0.83850
C320        C  0.43259510  0.58553865  0.02350050     0.96690
O321        O  0.44086369  0.54851282  0.00749708    -0.83880
O322        O  0.41805206  0.45467528  0.95894564    -0.86480
C323        C  0.39150581  0.41709085  0.26385307     1.01160
O324        O  0.33851153  0.39316674  0.26186301    -0.79300
O325        O  0.33423528  0.48150671  0.22256891    -0.79630
C326        C  0.37647054  0.53288960  0.22605286     1.01130
Cr327      Cr  0.33222327  0.54037361  0.30556692     1.93740
Cr328      Cr  0.37614788  0.46828664  0.00760888     1.93210
Cr329      Cr  0.28786174  0.42410606  0.27039378     1.39100
O330        O  0.33205786  0.47691881  0.30564417    -1.24540
O331        O  0.48890479  0.71978614  0.18454089    -0.86790
O332        O  0.46946017  0.71949116  0.09423487    -0.83840
C333        C  0.51220618  0.76558756  0.08763101     0.96670
O334        O  0.55756061  0.77406782  0.10370713    -0.83870
O335        O  0.62877538  0.75160173  0.15242923    -0.86510
C336        C  0.63983909  0.72512570  0.18087968     1.01200
O337        O  0.61075465  0.67214137  0.18290908    -0.79280
O338        O  0.51787451  0.66758981  0.22201857    -0.79460
C339        C  0.50853756  0.70966004  0.21846454     1.01150
O340        O  0.41507074  0.61082811  0.18350599    -0.86790
O341        O  0.43467337  0.61062743  0.09327318    -0.83850
C342        C  0.46454977  0.62095470  0.05938250     0.96690
O343        O  0.51593618  0.66319237  0.05589473    -0.83880
O344        O  0.60429005  0.65893527  0.09519866    -0.86480
C345        C  0.58035102  0.60594864  0.09718722     1.01160
O346        O  0.54276631  0.57941302  0.12562172    -0.79300
O347        O  0.44892535  0.55659889  0.17416515    -0.79450
C348        C  0.41188328  0.56484987  0.19016828     1.01130
Cr349      Cr  0.45703570  0.66519743  0.13889079     1.93740
Cr350      Cr  0.57333375  0.70957116  0.10371651     1.93210
Cr351      Cr  0.52915570  0.62131439  0.17427656     1.39100
O352        O  0.52051113  0.66538176  0.13897078    -1.24540
O353        O  0.71975425  0.48899354  0.31565716    -0.86790
O354        O  0.71947855  0.46953945  0.07262042    -0.83840
C355        C  0.76557627  0.51228368  0.07922169     0.96670
O356        O  0.77404742  0.55762623  0.06314479    -0.83870
O357        O  0.75154885  0.62882823  0.01444708    -0.86510
C358        C  0.72505965  0.63989098  0.98600480     1.01200
O359        O  0.67207148  0.61079659  0.31730808    -0.79280
O360        O  0.66751951  0.51793413  0.27819353    -0.79460
C361        C  0.70960117  0.50860339  0.28173470     1.01150
O362        O  0.61078657  0.41515473  0.31671538    -0.86790
O363        O  0.61059229  0.43473116  0.07360961    -0.83850
C364        C  0.62092575  0.46459245  0.10750284     0.96690
O365        O  0.66316035  0.51597625  0.11098490    -0.83880
O366        O  0.65888301  0.60432016  0.07169700    -0.86480
C367        C  0.60588929  0.58039993  0.06970562     1.01160
O368        O  0.57934489  0.54282114  0.37461077    -0.79300
O369        O  0.55652861  0.44898418  0.32605839    -0.79450
C370        C  0.56479572  0.41195666  0.31005609     1.01130
Cr371      Cr  0.66516250  0.45711369  0.02798174     1.93740
Cr372      Cr  0.70952973  0.57337969  0.06315901     1.93210
Cr373      Cr  0.62124587  0.52920944  0.32594685     1.39100
O374        O  0.66532929  0.52056953  0.02790822    -1.24540
O375        O  0.84173496  0.89639173  0.20454399    -0.86790
O376        O  0.86142864  0.91569568  0.29484790    -0.83840
C377        C  0.81866198  0.91895211  0.30149195     0.96670
O378        O  0.77331015  0.88197521  0.95211391    -0.83870
O379        O  0.70209966  0.78823823  0.23679077    -0.86510
C380        C  0.69100649  0.75070280  0.20831884     1.01200
O381        O  0.72005162  0.72679132  0.20627339    -0.79280
O382        O  0.81281538  0.81519179  0.16706876    -0.79460
C383        C  0.82207205  0.86657824  0.17063206     1.01150
O384        O  0.91568335  0.86147586  0.20541261    -0.86790
O385        O  0.89633032  0.84174564  0.29571378    -0.83850
C386        C  0.86649451  0.82207965  0.99628723     0.96690
O387        O  0.81510018  0.81282946  0.99984379    -0.83880
O388        O  0.72671122  0.72009530  0.29395938    -0.86480
C389        C  0.75063646  0.69106317  0.29191170     1.01160
O390        O  0.78818804  0.70217115  0.26344325    -0.79300
O391        O  0.88194855  0.77337637  0.21481343    -0.79450
C392        C  0.91893324  0.81871345  0.19876862     1.01130
Cr393      Cr  0.87380125  0.87383523  0.25012960     1.93740
Cr394      Cr  0.75761009  0.80171738  0.28543934     1.93210
Cr395      Cr  0.80168122  0.75768615  0.21480403     1.39100
O396        O  0.81037207  0.81042342  0.25012388    -1.24540
O397        O  0.17504299  0.56305156  0.42676393    -0.86790
O398        O  0.19474836  0.58235463  0.51706822    -0.83840
C399        C  0.15198126  0.58560991  0.52371438     0.96670
O400        O  0.10663104  0.54863550  0.50767197    -0.83870
O401        O  0.03542269  0.45489886  0.45900663    -0.86510
C402        C  0.02432970  0.41736246  0.43053542     1.01200
O403        O  0.05337447  0.39345026  0.42849208    -0.79280
O404        O  0.14613110  0.48185502  0.38928508    -0.79460
C405        C  0.15538110  0.53323885  0.39285153     1.01150
O406        O  0.24900059  0.52814667  0.42761885    -0.86790
O407        O  0.22965672  0.50840960  0.51792211    -0.83850
C408        C  0.19982780  0.48874369  0.55183164     0.96690
O409        O  0.14843241  0.47949041  0.55539294    -0.83880
O410        O  0.06003613  0.38675439  0.51616967    -0.86480
C411        C  0.08396622  0.35772682  0.51412534     1.01160
O412        O  0.12152011  0.36883737  0.48565803    -0.79300
O413        O  0.21527761  0.44004899  0.43702100    -0.79450
C414        C  0.25225837  0.48538827  0.42097533     1.01130
Cr415      Cr  0.20712044  0.54049962  0.47234318     1.93740
Cr416      Cr  0.09093350  0.46837621  0.50765484     1.93210
Cr417      Cr  0.13500602  0.42435047  0.43701808     1.39100
O418        O  0.14369491  0.47708591  0.47233839    -1.24540
O419        O  0.05309997  0.15567230  0.53788283    -0.86790
O420        O  0.05281769  0.13621692  0.62818198    -0.83840
C421        C  0.09891544  0.17896210  0.63478346     0.96670
O422        O  0.10738374  0.22430418  0.28537326    -0.83870
O423        O  0.08488483  0.29549987  0.57000290    -0.86510
C424        C  0.05839523  0.30656022  0.54155946     1.01200
O425        O  0.00540267  0.27746398  0.53952780    -0.79280
O426        O  0.00086484  0.18460853  0.50041393    -0.79460
C427        C  0.04295022  0.17528374  0.50395968     1.01150
O428        O  0.94413201  0.08182731  0.53892695    -0.86790
O429        O  0.94392806  0.10140062  0.62915689    -0.83850
C430        C  0.95425135  0.13126065  0.32971525     0.96690
O431        O  0.99648458  0.18264487  0.33320175    -0.83880
O432        O  0.99221116  0.27098734  0.62724711    -0.86480
C433        C  0.93921676  0.24706052  0.62525805     1.01160
O434        O  0.91267267  0.20947987  0.59682723    -0.79300
O435        O  0.88986702  0.11564789  0.54827098    -0.79450
C436        C  0.89813848  0.07862412  0.53226687     1.01130
Cr437      Cr  0.99850711  0.12378853  0.58353524     1.93740
Cr438      Cr  0.04286257  0.24005120  0.61871417     1.93210
Cr439      Cr  0.95458079  0.19587565  0.54816354     1.39100
O440        O  0.99866829  0.18724095  0.58346193    -1.24540
O441        O  0.82223559  0.38644966  0.40675645    -0.86790
O442        O  0.80278110  0.38614118  0.64978307    -0.83840
C443        C  0.84552576  0.43223978  0.64317970     0.96670
O444        O  0.89087980  0.44072194  0.65925806    -0.83870
O445        O  0.96209746  0.41826031  0.70798258    -0.86510
C446        C  0.97316306  0.39178465  0.40309533     1.01200
O447        O  0.94408228  0.33879986  0.40512168    -0.79280
O448        O  0.85120841  0.33425674  0.44423625    -0.79460
C449        C  0.84187325  0.37632833  0.44067974     1.01150
O450        O  0.74840052  0.27749060  0.40573572    -0.86790
O451        O  0.76799623  0.27727628  0.64883472    -0.83850
C452        C  0.79787143  0.28760033  0.61494360     0.96690
O453        O  0.84925605  0.32984051  0.61145196    -0.83880
O454        O  0.93761417  0.32559223  0.65075482    -0.86480
C455        C  0.91367361  0.27260517  0.31940498     1.01160
O456        O  0.87608799  0.24606819  0.34783919    -0.79300
O457        O  0.78224995  0.22325744  0.39639238    -0.79450
C458        C  0.74521051  0.23151082  0.41239824     1.01130
Cr459      Cr  0.79035923  0.33185333  0.36111221     1.93740
Cr460      Cr  0.90665551  0.37622622  0.65927050     1.93210
Cr461      Cr  0.86248205  0.28797315  0.39649578     1.39100
O462        O  0.85383424  0.33203802  0.36119046    -1.24540
O463        O  0.80262018  0.41512018  0.48314476    -0.86790
O464        O  0.82231105  0.43441376  0.57345046    -0.83840
C465        C  0.84197355  0.46422475  0.60736362     0.96670
O466        O  0.85122939  0.51561109  0.61092951    -0.83870
O467        O  0.94399148  0.60401790  0.57172748    -0.86510
C468        C  0.97303656  0.58010645  0.56968392     1.01200
O469        O  0.96194547  0.54257092  0.54121248    -0.79280
O470        O  0.89073720  0.44883499  0.49254350    -0.79460
C471        C  0.84538600  0.41186182  0.47650068     1.01150
O472        O  0.76772282  0.48907407  0.48228695    -0.86790
O473        O  0.74836304  0.46933013  0.57258839    -0.83850
C474        C  0.74511117  0.51209148  0.57923315     0.96690
O475        O  0.78209428  0.55742854  0.56318724    -0.83880
O476        O  0.87585642  0.62863897  0.51455800    -0.86480
C477        C  0.91341223  0.63975093  0.48609197     1.01160
O478        O  0.93734010  0.61072086  0.48404710    -0.79300
O479        O  0.84894920  0.51798644  0.44482067    -0.79450
C480        C  0.79755613  0.50873865  0.44837929     1.01130
Cr481      Cr  0.79024645  0.45697570  0.52786755     1.93740
Cr482      Cr  0.86236268  0.57312111  0.56319668     1.93210
Cr483      Cr  0.90643983  0.52909672  0.49256187     1.39100
O484        O  0.85367543  0.52038672  0.52787615    -1.24540
O485        O  0.19457565  0.61131803  0.35043227    -0.86790
O486        O  0.17512449  0.61101432  0.59346078    -0.83840
C487        C  0.15549105  0.62113954  0.55953708     0.96670
O488        O  0.14615750  0.66321207  0.55598176    -0.83870
O489        O  0.05328400  0.65866926  0.59509575    -0.86510
C490        C  0.02420174  0.60568471  0.59712410     1.01200
O491        O  0.03526377  0.57920959  0.29223935    -0.79280
O492        O  0.10647519  0.55674326  0.34096055    -0.79460
C493        C  0.15182910  0.56522180  0.35703593     1.01150
O494        O  0.22936831  0.72018380  0.35138694    -0.86790
O495        O  0.24896328  0.71997212  0.59448646    -0.83850
C496        C  0.25215531  0.76595273  0.58782487     0.96690
O497        O  0.21511622  0.77420743  0.60382929    -0.83880
O498        O  0.12128044  0.75140141  0.65237809    -0.86480
C499        C  0.08369670  0.72486799  0.68081384     1.01160
O500        O  0.05975297  0.67188083  0.34946612    -0.79300
O501        O  0.14810737  0.66762501  0.38876918    -0.79450
C502        C  0.19949393  0.70986194  0.38527829     1.01130
Cr503      Cr  0.20700141  0.66560840  0.63910688     1.93740
Cr504      Cr  0.13488390  0.70949440  0.60372290     1.93210
Cr505      Cr  0.09070633  0.62124245  0.34095012     1.39100
O506        O  0.14352843  0.66542791  0.63902899    -1.24540
O507        O  0.94457532  0.86128231  0.37204838    -0.86790
O508        O  0.94429835  0.84182059  0.46234623    -0.83840
C509        C  0.95444816  0.82220662  0.49626794     0.96670
O510        O  0.99652986  0.81287618  0.49981080    -0.83870
O511        O  0.99197896  0.72001621  0.46069263    -0.86510
C512        C  0.93898630  0.69092128  0.45865994     1.01200
O513        O  0.91249828  0.70198799  0.43021893    -0.79280
O514        O  0.89000520  0.77319550  0.71485561    -0.79460
C515        C  0.89847670  0.81853898  0.36544572     1.01150
O516        O  0.05346274  0.89609122  0.37106717    -0.86790
O517        O  0.05326660  0.91565957  0.46129684    -0.83850
C518        C  0.09925775  0.91885777  0.46795655     0.96690
O519        O  0.10752524  0.88183079  0.45195308    -0.83880
O520        O  0.08470770  0.78799638  0.40339225    -0.86480
C521        C  0.05815967  0.75041827  0.37496055     1.01160
O522        O  0.00516604  0.72649909  0.37296975    -0.79300
O523        O  0.00089920  0.81484941  0.66702160    -0.79450
C524        C  0.04313445  0.86623275  0.67050761     1.01130
Cr525      Cr  0.99888757  0.87370285  0.41669159     1.93740
Cr526      Cr  0.04280630  0.80160496  0.45205814     1.93210
Cr527      Cr  0.95452117  0.75744094  0.38150890     1.39100
O528        O  0.99872097  0.81024730  0.41676168    -1.24540
O529        O  0.38641245  0.82231977  0.42677295    -0.86790
O530        O  0.38613033  0.80286204  0.51707261    -0.83840
C531        C  0.43222964  0.84560534  0.52367453     0.96670
O532        O  0.44070248  0.89094750  0.50759560    -0.83870
O533        O  0.41820861  0.96215118  0.45889449    -0.86510
C534        C  0.39172010  0.97321615  0.43045299     1.01200
O535        O  0.33872746  0.94412248  0.42842139    -0.79280
O536        O  0.33418287  0.85126400  0.38930535    -0.79460
C537        C  0.37626536  0.84193445  0.39285030     1.01150
O538        O  0.27744328  0.74848133  0.42781845    -0.86790
O539        O  0.27724256  0.76805479  0.51804805    -0.83850
C540        C  0.28757171  0.79791487  0.55194168     0.96690
O541        O  0.32980831  0.84929710  0.55542789    -0.83880
O542        O  0.32553992  0.93764505  0.51614061    -0.86480
C543        C  0.27254600  0.91372389  0.51415152     1.01160
O544        O  0.24599810  0.87614337  0.48572113    -0.79300
O545        O  0.22318350  0.78230839  0.43716174    -0.79450
C546        C  0.23145176  0.74528228  0.42115782     1.01130
Cr547      Cr  0.33182022  0.79043912  0.47242609     1.93740
Cr548      Cr  0.37618523  0.90670257  0.50760559     1.93210
Cr549      Cr  0.28790173  0.86253446  0.43705608     1.39100
O550        O  0.33198694  0.85389444  0.47235357    -1.24540
O551        O  0.15558640  0.05313577  0.62898026    -0.86790
O552        O  0.13613420  0.05282627  0.53867269    -0.83840
C553        C  0.17888074  0.09892327  0.53206915     0.96670
O554        O  0.22423400  0.10740225  0.54814656    -0.83870
O555        O  0.29544410  0.08493609  0.59687357    -0.86510
C556        C  0.30650620  0.05845975  0.62532473     1.01200
O557        O  0.27742303  0.00547506  0.62735166    -0.79280
O558        O  0.18454784  0.00093753  0.33312928    -0.79460
C559        C  0.17521802  0.04301228  0.32957159     1.01150
O560        O  0.08174524  0.94417765  0.62796131    -0.86790
O561        O  0.10134081  0.94395942  0.53772594    -0.83850
C562        C  0.13121582  0.95427934  0.50383500     0.96690
O563        O  0.18260207  0.99651676  0.50034305    -0.83880
O564        O  0.27095551  0.99226228  0.53964861    -0.86480
C565        C  0.24701055  0.93927502  0.54163475     1.01160
O566        O  0.20942488  0.91274200  0.57006948    -0.79300
O567        O  0.11558669  0.88994048  0.28528299    -0.79450
C568        C  0.07855155  0.89819614  0.63462388     1.01130
Cr569      Cr  0.12370777  0.99853851  0.58333704     1.93740
Cr570      Cr  0.24000262  0.04290203  0.54816148     1.93210
Cr571      Cr  0.19582268  0.95465163  0.61872398     1.39100
O572        O  0.18718015  0.99871809  0.58341699    -1.24540
O573        O  0.56299003  0.17504884  0.40682426    -0.86790
O574        O  0.58234426  0.19479690  0.64985669    -0.83840
C575        C  0.58559330  0.15203408  0.64321136     0.96670
O576        O  0.54860766  0.10669732  0.65925597    -0.83870
O577        O  0.45484724  0.03549469  0.70788896    -0.86510
C578        C  0.41729395  0.02438411  0.40302003     1.01200
O579        O  0.39336932  0.05341703  0.40506629    -0.79280
O580        O  0.48176701  0.14614693  0.44429243    -0.79460
C581        C  0.53315858  0.15538985  0.44073313     1.01150
O582        O  0.52810157  0.24901040  0.40597208    -0.86790
O583        O  0.50840196  0.22972082  0.64899906    -0.83850
C584        C  0.48873476  0.19991027  0.61508609     0.96690
O585        O  0.47947534  0.14852281  0.61151869    -0.83880
O586        O  0.38671262  0.06011967  0.65072304    -0.86480
C587        C  0.35767225  0.08403508  0.31943054     1.01160
O588        O  0.36876807  0.12157155  0.34790241    -0.79300
O589        O  0.43998679  0.21530630  0.39657034    -0.79450
C590        C  0.48533898  0.25227527  0.41261490     1.01130
Cr591      Cr  0.54046909  0.20715269  0.36124628     1.93740
Cr592      Cr  0.46834135  0.09101168  0.65925047     1.93210
Cr593      Cr  0.42427540  0.13504146  0.39655211     1.39100
O594        O  0.47703650  0.14374556  0.36123703    -1.24540
O595        O  0.86126864  0.94466319  0.46154256    -0.86790
O596        O  0.84180985  0.94435882  0.37123627    -0.83840
C597        C  0.82217539  0.95448212  0.67064643     0.96670
O598        O  0.81283998  0.99655325  0.66709161    -0.83870
O599        O  0.71996056  0.99200287  0.37287365    -0.86510
C600        C  0.69087881  0.93901806  0.37490156     1.01200
O601        O  0.70194734  0.91254335  0.40335027    -0.79280
O602        O  0.77316948  0.89008318  0.45207000    -0.79460
C603        C  0.81852397  0.89856531  0.46814727     1.01150
O604        O  0.89605470  0.05352786  0.46249544    -0.86790
O605        O  0.91564502  0.05331726  0.37226030    -0.83850
C606        C  0.91883374  0.09929640  0.36559811     0.96690
O607        O  0.88179534  0.10754798  0.71493838    -0.83880
O608        O  0.78795498  0.08473474  0.43015667    -0.86480
C609        C  0.75037191  0.05819779  0.45859232     1.01160
O610        O  0.72643454  0.00521129  0.46058016    -0.79300
O611        O  0.81479591  0.00096355  0.49987904    -0.79450
C612        C  0.86618124  0.04320305  0.49638756     1.01130
Cr613      Cr  0.87368714  0.99895254  0.41688164     1.93740
Cr614      Cr  0.80156137  0.04283179  0.38149993     1.93210
Cr615      Cr  0.75739315  0.95457813  0.45206108     1.39100
O616        O  0.81021165  0.99876756  0.41680497    -1.24540
O617        O  0.41503420  0.80266749  0.35037587    -0.86790
O618        O  0.43437903  0.82240118  0.59340686    -0.83840
C619        C  0.46420882  0.84206097  0.55949727     0.96670
O620        O  0.51560293  0.85130982  0.55593851    -0.83870
O621        O  0.60400259  0.94404512  0.59515985    -0.86510
C622        C  0.58007855  0.97307821  0.59720617     1.01200
O623        O  0.54252596  0.96196945  0.29233734    -0.79280
O624        O  0.44876622  0.89076671  0.34097401    -0.79460
C625        C  0.41178194  0.84542896  0.35701910     1.01150
O626        O  0.48898555  0.76775478  0.35123727    -0.86790
O627        O  0.46927910  0.74844931  0.59426601    -0.83850
C628        C  0.51204467  0.74519045  0.58762190     0.96690
O629        O  0.55739462  0.78216176  0.60366674    -0.83880
O630        O  0.62861191  0.87590108  0.65232721    -0.86480
C631        C  0.63970902  0.91343947  0.68079779     1.01160
O632        O  0.61066614  0.93735274  0.34950569    -0.79300
O633        O  0.51790510  0.84895479  0.38871314    -0.79450
C634        C  0.50865132  0.79756970  0.38514839     1.01130
Cr635      Cr  0.45690997  0.79031012  0.63898841     1.93740
Cr636      Cr  0.57309996  0.86242340  0.60367866     1.93210
Cr637      Cr  0.52903507  0.90645765  0.34097828     1.39100
O638        O  0.52033979  0.85372075  0.63899391    -1.24540
O639        O  0.61123264  0.19459096  0.48315771    -0.86790
O640        O  0.61095508  0.17513619  0.57345541    -0.83840
C641        C  0.62110601  0.15552564  0.60737843     0.96670
O642        O  0.66318947  0.14619775  0.61092223    -0.83870
O643        O  0.65864527  0.05333979  0.57180660    -0.86510
C644        C  0.60565286  0.02424472  0.56977309     1.01200
O645        O  0.57916496  0.03530625  0.54132927    -0.79280
O646        O  0.55666647  0.10650377  0.49263147    -0.79460
C647        C  0.56513573  0.15184577  0.47655545     1.01150
O648        O  0.72012132  0.22940608  0.48217613    -0.86790
O649        O  0.71992298  0.24897844  0.57240521    -0.83850
C650        C  0.76591535  0.25217955  0.57906493     0.96690
O651        O  0.77418500  0.21515386  0.56306241    -0.83880
O652        O  0.75137519  0.12132130  0.51450713    -0.86480
C653        C  0.72483082  0.08374269  0.48607519     1.01160
O654        O  0.67183687  0.05981836  0.48408423    -0.79300
O655        O  0.66756110  0.14816270  0.44479675    -0.79450
C656        C  0.70979444  0.19954687  0.44828226     1.01130
Cr657      Cr  0.66554517  0.20701765  0.52780052     1.93740
Cr658      Cr  0.70946946  0.13492754  0.56317085     1.93210
Cr659      Cr  0.62118720  0.09075553  0.49261950     1.39100
O660        O  0.66538269  0.14356439  0.52787260    -1.24540
O661        O  0.52792891  0.27799516  0.57266897    -0.86790
O662        O  0.50848719  0.27768914  0.48236000    -0.83840
C663        C  0.48885373  0.28781158  0.44843496     0.96670
O664        O  0.47952113  0.32988470  0.44487665    -0.83870
O665        O  0.38664429  0.32534530  0.48398096    -0.86510
C666        C  0.35755829  0.27236113  0.48601009     1.01200
O667        O  0.36861895  0.24588393  0.51446167    -0.79280
O668        O  0.43982936  0.22341703  0.56319279    -0.79460
C669        C  0.48518286  0.23189746  0.57927151     1.01150
O670        O  0.56271597  0.38686042  0.57361767    -0.86790
O671        O  0.58232353  0.38664826  0.48338460    -0.83850
C672        C  0.58551477  0.43262855  0.47672183     0.96690
O673        O  0.54847508  0.44088198  0.49272647    -0.83880
O674        O  0.45463226  0.41807542  0.54126738    -0.86480
C675        C  0.41704376  0.39154118  0.56970016     1.01160
O676        O  0.39310204  0.33855414  0.57168750    -0.79300
O677        O  0.48145246  0.33429816  0.61099673    -0.79450
C678        C  0.53283783  0.37653684  0.60750712     1.01130
Cr679      Cr  0.54035711  0.33228423  0.52800574     1.93740
Cr680      Cr  0.46824281  0.37616889  0.49261450     1.93210
Cr681      Cr  0.42405751  0.28791577  0.56317575     1.39100
O682        O  0.47688273  0.33210142  0.52792219    -1.24540
O683        O  0.13596661  0.08180569  0.37203642    -0.86790
O684        O  0.15566588  0.10110047  0.46234090    -0.83840
C685        C  0.17533009  0.13091029  0.49625429     0.96670
O686        O  0.18458715  0.18229671  0.49982181    -0.83870
O687        O  0.27734858  0.27070069  0.46061758    -0.86510
C688        C  0.30639157  0.24678711  0.45857069     1.01200
O689        O  0.29529753  0.20925370  0.43009683    -0.79280
O690        O  0.22408698  0.11552055  0.71476516    -0.79460
C691        C  0.17873144  0.07854584  0.36539203     1.01150
O692        O  0.10106654  0.15575779  0.37118225    -0.86790
O693        O  0.08171857  0.13601827  0.46148354    -0.83850
C694        C  0.07846659  0.17877939  0.46812862     0.96690
O695        O  0.11545149  0.22411787  0.45208555    -0.83880
O696        O  0.20920997  0.29532510  0.40345366    -0.86480
C697        C  0.24675983  0.30643336  0.37498355     1.01160
O698        O  0.27068636  0.27740258  0.37293494    -0.79300
O699        O  0.18229127  0.18466898  0.66704318    -0.79450
C700        C  0.13089715  0.17541894  0.67060431     1.01130
Cr701      Cr  0.12359696  0.12366203  0.41676084     1.93740
Cr702      Cr  0.19571902  0.23980716  0.45209050     1.93210
Cr703      Cr  0.23978622  0.19577989  0.38144999     1.39100
O704        O  0.18702627  0.18707260  0.41676759    -1.24540
O705        O  0.27790794  0.52794301  0.59425315    -0.86790
O706        O  0.27763150  0.50849851  0.35122115    -0.83840
C707        C  0.28777850  0.48888618  0.38514515     0.96670
O708        O  0.32986209  0.47955857  0.38869193    -0.83870
O709        O  0.32532231  0.38669861  0.34958397    -0.86510
C710        C  0.27232962  0.35759994  0.68087962     1.01200
O711        O  0.24583884  0.36865951  0.65243655    -0.79280
O712        O  0.22333874  0.43985640  0.60373017    -0.79460
C713        C  0.23180963  0.48519848  0.58765191     1.01150
O714        O  0.38679567  0.56275278  0.59327707    -0.86790
O715        O  0.38660066  0.58233807  0.35017319    -0.83850
C716        C  0.43259217  0.58553768  0.35683528     0.96690
O717        O  0.44086090  0.54851165  0.34083240    -0.83880
O718        O  0.41805097  0.45467407  0.29228212    -0.86480
C719        C  0.39150363  0.41709085  0.59718094     1.01160
O720        O  0.33850934  0.39316683  0.59519125    -0.79300
O721        O  0.33423248  0.48150767  0.55589967    -0.79630
C722        C  0.37646743  0.53289058  0.55938471     1.01130
Cr723      Cr  0.33221902  0.54037160  0.63889919     1.93740
Cr724      Cr  0.37614499  0.46828541  0.34094390     1.93210
Cr725      Cr  0.28785925  0.42410550  0.60372369     1.39100
O726        O  0.33205510  0.47691759  0.63897454    -1.24540
O727        O  0.48890428  0.71978879  0.51787441    -0.86790
O728        O  0.46945914  0.71949263  0.42756872    -0.83840
C729        C  0.51220522  0.76558882  0.42096470     0.96670
O730        O  0.55755982  0.77406877  0.43704027    -0.83870
O731        O  0.62877600  0.75160312  0.48576084    -0.86510
C732        C  0.63983955  0.72512810  0.51421232     1.01200
O733        O  0.61075354  0.67214406  0.51624436    -0.79280
O734        O  0.51787273  0.66759201  0.55535263    -0.79460
C735        C  0.50853616  0.70966244  0.55179839     1.01150
O736        O  0.41507015  0.61083061  0.51683983    -0.86790
O737        O  0.43467158  0.61062867  0.42660757    -0.83850
C738        C  0.46454736  0.62095493  0.39271672     0.96690
O739        O  0.51593375  0.66319241  0.38922833    -0.83880
O740        O  0.60428837  0.65893561  0.42853110    -0.86480
C741        C  0.58035113  0.60594929  0.43052205     1.01160
O742        O  0.54276710  0.57941465  0.45895727    -0.79300
O743        O  0.44892430  0.55660100  0.50749863    -0.79450
C744        C  0.41188181  0.56485184  0.52350125     1.01130
Cr745      Cr  0.45703504  0.66519946  0.47222469     1.93740
Cr746      Cr  0.57333251  0.70957180  0.43704934     1.93210
Cr747      Cr  0.52915487  0.62131656  0.50761103     1.39100
O748        O  0.52051047  0.66538344  0.47230453    -1.24540
O749        O  0.71975028  0.48898903  0.64898968    -0.86790
O750        O  0.71948387  0.46954128  0.40595444    -0.83840
C751        C  0.76558063  0.51228586  0.41255725     0.96670
O752        O  0.77405103  0.55762904  0.39648213    -0.83870
O753        O  0.75155218  0.62883171  0.34778626    -0.86510
C754        C  0.72506359  0.63989420  0.31934329     1.01200
O755        O  0.67207095  0.61079531  0.65063591    -0.79280
O756        O  0.66751846  0.51793136  0.61152404    -0.79460
C757        C  0.70959936  0.50859977  0.61506676     1.01150
O758        O  0.61078209  0.41515167  0.65004763    -0.86790
O759        O  0.61059743  0.43473092  0.40694291    -0.83850
C760        C  0.62092828  0.46459074  0.44083667     0.96690
O761        O  0.66316198  0.51597469  0.44432050    -0.83880
O762        O  0.65888431  0.60431975  0.40503540    -0.86480
C763        C  0.60589074  0.58040018  0.40304207     1.01160
O764        O  0.57934306  0.54282143  0.70793848    -0.79300
O765        O  0.55652598  0.44898382  0.65938771    -0.79450
C766        C  0.56479211  0.41195500  0.64338685     1.01130
Cr767      Cr  0.66516874  0.45711682  0.36131561     1.93740
Cr768      Cr  0.70953225  0.57338073  0.39649650     1.93210
Cr769      Cr  0.62124437  0.52920837  0.65927581     1.39100
O770        O  0.66533375  0.52057183  0.36124399    -1.24540
O771        O  0.84174018  0.89639499  0.53787664    -0.86790
O772        O  0.86143177  0.91569604  0.62818074    -0.83840
C773        C  0.81866525  0.91895299  0.63482432     0.96670
O774        O  0.77331125  0.88197744  0.28545042    -0.83870
O775        O  0.70210191  0.78824018  0.57012263    -0.86510
C776        C  0.69100847  0.75070571  0.54164984     1.01200
O777        O  0.72005430  0.72679513  0.53960233    -0.79280
O778        O  0.81281954  0.81519599  0.50040001    -0.79460
C779        C  0.82207681  0.86658255  0.50396433     1.01150
O780        O  0.91568694  0.86147692  0.53874490    -0.86790
O781        O  0.89633244  0.84174476  0.62904579    -0.83850
C782        C  0.86649930  0.82208437  0.32962266     0.96690
O783        O  0.81510499  0.81283398  0.33318054    -0.83880
O784        O  0.72671309  0.72009632  0.62729035    -0.86480
C785        C  0.75063682  0.69106288  0.62524116     1.01160
O786        O  0.78818789  0.70217078  0.59677221    -0.79300
O787        O  0.88195033  0.77337696  0.54814447    -0.79450
C788        C  0.91893621  0.81871420  0.53210067     1.01130
Cr789      Cr  0.87380467  0.87383611  0.58346196     1.93740
Cr790      Cr  0.75761267  0.80171861  0.61877072     1.93210
Cr791      Cr  0.80168346  0.75768830  0.54813419     1.39100
O792        O  0.81037469  0.81042474  0.58345514    -1.24540
O793        O  0.17504654  0.56305177  0.76009867    -0.86790
O794        O  0.19475101  0.58235460  0.85040291    -0.83840
C795        C  0.15198387  0.58561034  0.85704804     0.96670
O796        O  0.10663401  0.54863576  0.84100545    -0.83870
O797        O  0.03542426  0.45489817  0.79234298    -0.86510
C798        C  0.02433076  0.41736212  0.76387142     1.01200
O799        O  0.05337560  0.39345014  0.76182713    -0.79280
O800        O  0.14613240  0.48185487  0.72261985    -0.79460
C801        C  0.15538363  0.53323914  0.72618638     1.01150
O802        O  0.24900300  0.52814513  0.76095354    -0.86790
O803        O  0.22965988  0.50840936  0.85125701    -0.83850
C804        C  0.19983167  0.48874487  0.88516697     0.96690
O805        O  0.14843644  0.47949211  0.88872834    -0.83880
O806        O  0.06003961  0.38675518  0.84950669    -0.86480
C807        C  0.08396836  0.35772649  0.84746061     1.01160
O808        O  0.12152084  0.36883624  0.81899221    -0.79300
O809        O  0.21527802  0.44004695  0.77035469    -0.79450
C810        C  0.25225905  0.48538591  0.75430886     1.01130
Cr811      Cr  0.20712340  0.54049915  0.80567799     1.93740
Cr812      Cr  0.09093658  0.46837666  0.84099036     1.93210
Cr813      Cr  0.13500707  0.42434985  0.77035265     1.39100
O814        O  0.14369731  0.47708553  0.80567339    -1.24540
O815        O  0.05310633  0.15567482  0.87121558    -0.86790
O816        O  0.05282502  0.13621808  0.96151457    -0.83840
C817        C  0.09892117  0.17896469  0.96811747     0.96670
O818        O  0.10738467  0.22430357  0.61870581    -0.83870
O819        O  0.08488674  0.29550014  0.90333846    -0.86510
C820        C  0.05839733  0.30655945  0.87489417     1.01200
O821        O  0.00540493  0.27746183  0.87286112    -0.79280
O822        O  0.00086760  0.18460707  0.83374739    -0.79460
C823        C  0.04295449  0.17528461  0.83729250     1.01150
O824        O  0.94413806  0.08182698  0.87225949    -0.86790
O825        O  0.94393453  0.10139741  0.96248973    -0.83850
C826        C  0.95425330  0.13126044  0.66305034     0.96690
O827        O  0.99648701  0.18264442  0.66653666    -0.83880
O828        O  0.99221244  0.27098467  0.96058236    -0.86480
C829        C  0.93921827  0.24705841  0.95859192     1.01160
O830        O  0.91267504  0.20947766  0.93016096    -0.79300
O831        O  0.88987112  0.11564484  0.88160602    -0.79450
C832        C  0.89814331  0.07862203  0.86560083     1.01130
Cr833      Cr  0.99851367  0.12378852  0.91686793     1.93740
Cr834      Cr  0.04286487  0.24005002  0.95204883     1.93210
Cr835      Cr  0.95458373  0.19587343  0.88149753     1.39100
O836        O  0.99867218  0.18723986  0.91679580    -1.24540
O837        O  0.82223474  0.38644924  0.74009072    -0.86790
O838        O  0.80277955  0.38613849  0.98311553    -0.83840
C839        C  0.84552357  0.43223748  0.97651184     0.96670
O840        O  0.89087844  0.44072028  0.99258924    -0.83870
O841        O  0.96209856  0.41826035  0.04131274    -0.86510
C842        C  0.97316354  0.39178452  0.73643183     1.01200
O843        O  0.94408167  0.33879987  0.73845920    -0.79280
O844        O  0.85120620  0.33425593  0.77757141    -0.79460
C845        C  0.84187102  0.37632744  0.77401447     1.01150
O846        O  0.74840005  0.27749027  0.73906918    -0.86790
O847        O  0.76799628  0.27727379  0.98216787    -0.83850
C848        C  0.79787070  0.28759819  0.94827630     0.96690
O849        O  0.84925491  0.32983872  0.94478404    -0.83880
O850        O  0.93761372  0.32559074  0.98408544    -0.86480
C851        C  0.91367508  0.27260548  0.65274122     1.01160
O852        O  0.87608954  0.24606867  0.68117550    -0.79300
O853        O  0.78224996  0.22325752  0.72972600    -0.79450
C854        C  0.74521012  0.23151053  0.74573145     1.01130
Cr855      Cr  0.79035973  0.33185338  0.69444640     1.93740
Cr856      Cr  0.90665513  0.37622498  0.99260169     1.93210
Cr857      Cr  0.86248182  0.28797314  0.72983139     1.39100
O858        O  0.85383490  0.33203817  0.69452561    -1.24540
O859        O  0.80261654  0.41511948  0.81647775    -0.86790
O860        O  0.82230604  0.43441181  0.90678334    -0.83840
C861        C  0.84196948  0.46422254  0.94069649     0.96670
O862        O  0.85122523  0.51560879  0.94426297    -0.83870
O863        O  0.94398778  0.60401580  0.90506217    -0.86510
C864        C  0.97303326  0.58010486  0.90301775     1.01200
O865        O  0.96194200  0.54256967  0.87454599    -0.79280
O866        O  0.89073297  0.44883342  0.82587862    -0.79460
C867        C  0.84538231  0.41186050  0.80983510     1.01150
O868        O  0.76771889  0.48907342  0.81561981    -0.86790
O869        O  0.74835853  0.46932905  0.90592106    -0.83850
C870        C  0.74510723  0.51209063  0.91256628     0.96690
O871        O  0.78209098  0.55742785  0.89652094    -0.83880
O872        O  0.87585458  0.62863882  0.84789245    -0.86480
C873        C  0.91341012  0.63975037  0.81942618     1.01160
O874        O  0.93733655  0.61071906  0.81738025    -0.79300
O875        O  0.84894525  0.51798474  0.77815393    -0.79450
C876        C  0.79755223  0.50873740  0.78171213     1.01130
Cr877      Cr  0.79024215  0.45697466  0.86120047     1.93740
Cr878      Cr  0.86235921  0.57311970  0.89653067     1.93210
Cr879      Cr  0.90643592  0.52909512  0.82589556     1.39100
O880        O  0.85367151  0.52038559  0.86120963    -1.24540
O881        O  0.19457730  0.61131854  0.68376678    -0.86790
O882        O  0.17512533  0.61101570  0.92679435    -0.83840
C883        C  0.15549242  0.62114023  0.89287018     0.96670
O884        O  0.14615770  0.66321193  0.88931421    -0.83870
O885        O  0.05328265  0.65866808  0.92842644    -0.86510
C886        C  0.02419944  0.60568380  0.93045698     1.01200
O887        O  0.03526501  0.57920939  0.62557508    -0.79280
O888        O  0.10647667  0.55674361  0.67429626    -0.79460
C889        C  0.15183094  0.56522231  0.69037104     1.01150
O890        O  0.22936950  0.72018434  0.68472095    -0.86790
O891        O  0.24896230  0.71997377  0.92781979    -0.83850
C892        C  0.25215358  0.76595396  0.92115821     0.96690
O893        O  0.21511370  0.77420783  0.93716200    -0.83880
O894        O  0.12127679  0.75140147  0.98570828    -0.86480
C895        C  0.08369435  0.72486912  0.01414507     1.01160
O896        O  0.05975416  0.67188111  0.68280164    -0.79300
O897        O  0.14810903  0.66762613  0.72210395    -0.79450
C898        C  0.19949526  0.70986335  0.71861236     1.01130
Cr899      Cr  0.20700068  0.66561022  0.97244002     1.93740
Cr900      Cr  0.13488207  0.70949407  0.93705453     1.93210
Cr901      Cr  0.09070765  0.62124277  0.67428557     1.39100
O902        O  0.14352703  0.66542869  0.97236166    -1.24540
O903        O  0.94457608  0.86128163  0.70538150    -0.86790
O904        O  0.94429654  0.84181853  0.79567968    -0.83840
C905        C  0.95444576  0.82220432  0.82960157     0.96670
O906        O  0.99652800  0.81287495  0.83314530    -0.83870
O907        O  0.99197807  0.72001565  0.79402754    -0.86510
C908        C  0.93898530  0.69092111  0.79199453     1.01200
O909        O  0.91249801  0.70198800  0.76355306    -0.79280
O910        O  0.89000039  0.77319415  0.04818883    -0.79460
C911        C  0.89847785  0.81853822  0.69877802     1.01150
O912        O  0.05346347  0.89609118  0.70440210    -0.86790
O913        O  0.05326454  0.91565895  0.79463202    -0.83850
C914        C  0.09925608  0.91885828  0.80129241     0.96690
O915        O  0.10752453  0.88183132  0.78528985    -0.83880
O916        O  0.08470858  0.78799692  0.73672818    -0.86480
C917        C  0.05816094  0.75041841  0.70829662     1.01160
O918        O  0.00516728  0.72649861  0.70630589    -0.79300
O919        O  0.00089450  0.81485293  0.00035300    -0.79450
C920        C  0.04312870  0.86623680  0.00383961     1.01130
Cr921      Cr  0.99888702  0.87370203  0.75002585     1.93740
Cr922      Cr  0.04280581  0.80160477  0.78539356     1.93210
Cr923      Cr  0.95452226  0.75744055  0.71484326     1.39100
O924        O  0.99872112  0.81024697  0.75009632    -1.24540
O925        O  0.38641306  0.82232397  0.76010770    -0.86790
O926        O  0.38612879  0.80286325  0.85040730    -0.83840
C927        C  0.43222826  0.84560592  0.85700967     0.96670
O928        O  0.44070159  0.89094904  0.84093204    -0.83870
O929        O  0.41820825  0.96215354  0.79223049    -0.86510
C930        C  0.39171979  0.97321898  0.76378927     1.01200
O931        O  0.33872702  0.94412575  0.76175805    -0.79280
O932        O  0.33418319  0.85126826  0.72264044    -0.79460
C933        C  0.37626566  0.84193865  0.72618515     1.01150
O934        O  0.27744464  0.74848493  0.76115212    -0.86790
O935        O  0.27724162  0.76805690  0.85138170    -0.83850
C936        C  0.28757021  0.79791646  0.88527558     0.96690
O937        O  0.32980677  0.84929847  0.88876261    -0.83880
O938        O  0.32553826  0.93764644  0.84947599    -0.86480
C939        C  0.27254420  0.91372474  0.84748705     1.01160
O940        O  0.24599664  0.87614433  0.81905653    -0.79300
O941        O  0.22318358  0.78231062  0.77049520    -0.79450
C942        C  0.23145288  0.74528505  0.75449136     1.01130
Cr943      Cr  0.33182011  0.79044207  0.80576037     1.93740
Cr944      Cr  0.37618424  0.90670445  0.84094118     1.93210
Cr945      Cr  0.28790133  0.86253725  0.77039123     1.39100
O946        O  0.33198649  0.85389698  0.80568855    -1.24540
O947        O  0.15558957  0.05314221  0.96231498    -0.86790
O948        O  0.13613670  0.05283299  0.87200721    -0.83840
C949        C  0.17888447  0.09892849  0.86540246     0.96670
O950        O  0.22423725  0.10740594  0.88147964    -0.83870
O951        O  0.29544407  0.08493706  0.93020830    -0.86510
C952        C  0.30650471  0.05846017  0.95866000     1.01200
O953        O  0.27742000  0.00547549  0.96068747    -0.79280
O954        O  0.18455139  0.00093832  0.66646252    -0.79460
C955        C  0.17522085  0.04301259  0.66290436     1.01150
O956        O  0.08174452  0.94418448  0.96129588    -0.86790
O957        O  0.10133912  0.94396559  0.87106057    -0.83850
C958        C  0.13121439  0.95428245  0.83717004     0.96690
O959        O  0.18260159  0.99651825  0.83367779    -0.83880
O960        O  0.27095442  0.99226310  0.87298446    -0.86480
C961        C  0.24700841  0.93927587  0.87497006     1.01160
O962        O  0.20942131  0.91274308  0.90340392    -0.79300
O963        O  0.11558917  0.88993991  0.61861845    -0.79450
C964        C  0.07854778  0.89820124  0.96795687     1.01130
Cr965      Cr  0.12370855  0.99854506  0.91667173     1.93740
Cr966      Cr  0.24000276  0.04290382  0.88149603     1.93210
Cr967      Cr  0.19581938  0.95465334  0.95205839     1.39100
O968        O  0.18717940  0.99872151  0.91675153    -1.24540
O969        O  0.56298944  0.17505337  0.74015784    -0.86790
O970        O  0.58234301  0.19479685  0.98318907    -0.83840
C971        C  0.58559209  0.15203404  0.97654369     0.96670
O972        O  0.54860671  0.10669740  0.99258850    -0.83870
O973        O  0.45484757  0.03549443  0.04122133    -0.86510
C974        C  0.41729387  0.02438680  0.73635608     1.01200
O975        O  0.39336829  0.05341891  0.73840105    -0.79280
O976        O  0.48176633  0.14614913  0.77762666    -0.79460
C977        C  0.53315811  0.15539273  0.77406666     1.01150
O978        O  0.52809974  0.24901351  0.73930524    -0.86790
O979        O  0.50840086  0.22972118  0.98233291    -0.83850
C980        C  0.48873364  0.19991102  0.94841975     0.96690
O981        O  0.47947391  0.14852346  0.94485215    -0.83880
O982        O  0.38671163  0.06011975  0.98405684    -0.86480
C983        C  0.35767171  0.08403559  0.65276569     1.01160
O984        O  0.36876708  0.12157289  0.68123677    -0.79300
O985        O  0.43998447  0.21530782  0.72990522    -0.79450
C986        C  0.48533695  0.25227760  0.74594882     1.01130
Cr987      Cr  0.54046673  0.20715550  0.69457969     1.93740
Cr988      Cr  0.46834054  0.09101188  0.99258354     1.93210
Cr989      Cr  0.42427409  0.13504330  0.72988679     1.39100
O990        O  0.47703516  0.14374772  0.69457170    -1.24540
O991        O  0.86126881  0.94465972  0.79487490    -0.86790
O992        O  0.84181109  0.94435765  0.70456916    -0.83840
C993        C  0.82217184  0.95447779  0.00397871     0.96670
O994        O  0.81283901  0.99655055  0.00042364    -0.83870
O995        O  0.71996308  0.99200275  0.70620574    -0.86510
C996        C  0.69087935  0.93901824  0.70823567     1.01200
O997        O  0.70194716  0.91254381  0.73668515    -0.79280
O998        O  0.77316948  0.89008175  0.78540188    -0.79460
C999        C  0.81852336  0.89856228  0.80147906     1.01150
O1000       O  0.89605775  0.05352513  0.79582929    -0.86790
O1001       O  0.91564713  0.05331645  0.70559455    -0.83850
C1002       C  0.91883623  0.09929598  0.69893331     0.96690
O1003       O  0.88179770  0.10754490  0.04827019    -0.83880
O1004       O  0.78795538  0.08473385  0.76348979    -0.86480
C1005       C  0.75037292  0.05819742  0.79192600     1.01160
O1006       O  0.72643746  0.00521128  0.79391601    -0.79300
O1007       O  0.81479916  0.00096188  0.83321312    -0.79450
C1008       C  0.86618499  0.04320063  0.82972167     1.01130
Cr1009     Cr  0.87368856  0.99895054  0.75021497     1.93740
Cr1010     Cr  0.80156362  0.04283140  0.71483356     1.93210
Cr1011     Cr  0.75739492  0.95457763  0.78539518     1.39100
O1012       O  0.81021331  0.99876671  0.75013872    -1.24540
O1013       O  0.41503166  0.80267037  0.68370913    -0.86790
O1014       O  0.43437907  0.82239697  0.92674069    -0.83840
C1015       C  0.46420810  0.84205899  0.89283092     0.96670
O1016       O  0.51560230  0.85130855  0.88927058    -0.83870
O1017       O  0.60400249  0.94404396  0.92849083    -0.86510
C1018       C  0.58007735  0.97307603  0.93053695     1.01200
O1019       O  0.54252706  0.96197273  0.62567426    -0.79280
O1020       O  0.44876664  0.89077034  0.67430923    -0.79460
C1021       C  0.41178132  0.84543267  0.69035355     1.01150
O1022       O  0.48898074  0.76775489  0.68457057    -0.86790
O1023       O  0.46928056  0.74844641  0.92759880    -0.83850
C1024       C  0.51204628  0.74518857  0.92095274     0.96690
O1025       O  0.55739705  0.78216100  0.93699587    -0.83880
O1026       O  0.62861385  0.87590054  0.98565714    -0.86480
C1027       C  0.63971087  0.91343920  0.01412752     1.01160
O1028       O  0.61066525  0.93735268  0.68284251    -0.79300
O1029       O  0.51790229  0.84895422  0.72204781    -0.79450
C1030       C  0.50864682  0.79756865  0.71848212     1.01130
Cr1031     Cr  0.45691276  0.79030738  0.97232175     1.93740
Cr1032     Cr  0.57310094  0.86242232  0.93700923     1.93210
Cr1033     Cr  0.52903450  0.90645911  0.67431405     1.39100
O1034       O  0.52034155  0.85371874  0.97232560    -1.24540
O1035       O  0.61123279  0.19459149  0.81649041    -0.86790
O1036       O  0.61095407  0.17513592  0.90678774    -0.83840
C1037       C  0.62110466  0.15552522  0.94071079     0.96670
O1038       O  0.66318765  0.14619660  0.94425462    -0.83870
O1039       O  0.65864358  0.05333866  0.90513883    -0.86510
C1040       C  0.60565133  0.02424302  0.90310439     1.01200
O1041       O  0.57916370  0.03530467  0.87466038    -0.79280
O1042       O  0.55666580  0.10650409  0.82596327    -0.79460
C1043       C  0.56513552  0.15184683  0.80988811     1.01150
O1044       O  0.72012120  0.22940532  0.81550927    -0.86790
O1045       O  0.71992203  0.24897708  0.90573831    -0.83850
C1046       C  0.76591423  0.25217781  0.91239778     0.96690
O1047       O  0.77418358  0.21515217  0.89639493    -0.83880
O1048       O  0.75137415  0.12132009  0.84784029    -0.86480
C1049       C  0.72483067  0.08374233  0.81940768     1.01160
O1050       O  0.67183673  0.05981856  0.81741534    -0.79300
O1051       O  0.66756031  0.14816281  0.77812914    -0.79450
C1052       C  0.70979407  0.19954652  0.78161516     1.01130
Cr1053     Cr  0.66554466  0.20701705  0.86113325     1.93740
Cr1054     Cr  0.70946785  0.13492622  0.89650342     1.93210
Cr1055     Cr  0.62118638  0.09075519  0.82595125     1.39100
O1056       O  0.66538152  0.14356345  0.86120499    -1.24540
O1057       O  0.52792804  0.27799654  0.90600283    -0.86790
O1058       O  0.50848676  0.27769181  0.81569356    -0.83840
C1059       C  0.48885236  0.28781403  0.78176889     0.96670
O1060       O  0.47951944  0.32988698  0.77821082    -0.83870
O1061       O  0.38664332  0.32534808  0.81731643    -0.86510
C1062       C  0.35755890  0.27236363  0.81934288     1.01200
O1063       O  0.36861972  0.24588537  0.84779341    -0.79280
O1064       O  0.43982872  0.22341795  0.89652593    -0.79460
C1065       C  0.48518203  0.23189864  0.91260517     1.01150
O1066       O  0.56271442  0.38686161  0.90695214    -0.86790
O1067       O  0.58232308  0.38665080  0.81671852    -0.83850
C1068       C  0.58551344  0.43263057  0.81005491     0.96690
O1069       O  0.54847419  0.44088414  0.82606011    -0.83880
O1070       O  0.45463321  0.41807706  0.87460314    -0.86480
C1071       C  0.41704404  0.39154182  0.90303521     1.01160
O1072       O  0.39310058  0.33855448  0.90502016    -0.79300
O1073       O  0.48145030  0.33429816  0.94433045    -0.79450
C1074       C  0.53283569  0.37653703  0.94084143     1.01130
Cr1075     Cr  0.54035662  0.33228625  0.86133970     1.93740
Cr1076     Cr  0.46824213  0.37617112  0.82594913     1.93210
Cr1077     Cr  0.42405646  0.28791641  0.89650871     1.39100
O1078       O  0.47688224  0.33210313  0.86125607    -1.24540
O1079       O  0.13597001  0.08180624  0.70536924    -0.86790
O1080       O  0.15567136  0.10110380  0.79567354    -0.83840
C1081       C  0.17533501  0.13091461  0.82958658     0.96670
O1082       O  0.18459141  0.18230089  0.83315311    -0.83870
O1083       O  0.27735140  0.27070458  0.79394667    -0.86510
C1084       C  0.30639371  0.24679013  0.79190181     1.01200
O1085       O  0.29529999  0.20925584  0.76342876    -0.79280
O1086       O  0.22408814  0.11552271  0.04810163    -0.79460
C1087       C  0.17873499  0.07854695  0.69872435     1.01150
O1088       O  0.10106885  0.15575702  0.70451432    -0.86790
O1089       O  0.08172235  0.13601932  0.79481588    -0.83850
C1090       C  0.07846969  0.17878010  0.80146070     0.96690
O1091       O  0.11545338  0.22411843  0.78541663    -0.83880
O1092       O  0.20920994  0.29532484  0.73678275    -0.86480
C1093       C  0.24676032  0.30643323  0.70831315     1.01160
O1094       O  0.27068842  0.27740382  0.70626606    -0.79300
O1095       O  0.18229602  0.18467331  0.00037988    -0.79450
C1096       C  0.13090186  0.17542341  0.00393968     1.01130
Cr1097     Cr  0.12360062  0.12366300  0.75009322     1.93740
Cr1098     Cr  0.19572139  0.23980935  0.78542076     1.93210
Cr1099     Cr  0.23978904  0.19578134  0.71478143     1.39100
O1100       O  0.18702909  0.18707403  0.75009891    -1.24540
O1101       O  0.27791354  0.52794493  0.92758711    -0.86790
O1102       O  0.27762778  0.50849432  0.68455370    -0.83840
C1103       C  0.28777690  0.48888285  0.71847723     0.96670
O1104       O  0.32986121  0.47955602  0.72202246    -0.83870
O1105       O  0.32532185  0.38669748  0.68291188    -0.86510
C1106       C  0.27233348  0.35760308  0.01421813     1.01200
O1107       O  0.24584216  0.36866296  0.98577571    -0.79280
O1108       O  0.22334252  0.43985930  0.93706746    -0.79460
C1109       C  0.23181423  0.48520079  0.92098741     1.01150
O1110       O  0.38680108  0.56275250  0.92661044    -0.86790
O1111       O  0.38659645  0.58233522  0.68350536    -0.83850
C1112       C  0.43258879  0.58553612  0.69016598     0.96690
O1113       O  0.44085841  0.54851135  0.67416166    -0.83880
O1114       O  0.41804910  0.45467434  0.62560980    -0.86480
C1115       C  0.39150519  0.41709104  0.93051758     1.01160
O1116       O  0.33851074  0.39316639  0.92852975    -0.79300
O1117       O  0.33423430  0.48150610  0.88923534    -0.79630
C1118       C  0.37647018  0.53288882  0.89271860     1.01130
Cr1119     Cr  0.33222545  0.54037475  0.97223308     1.93740
Cr1120     Cr  0.37614358  0.46828445  0.67427286     1.93210
Cr1121     Cr  0.28786189  0.42410654  0.93706121     1.39100
O1122       O  0.33205965  0.47691987  0.97231038    -1.24540
O1123       O  0.48890170  0.71978501  0.85120595    -0.86790
O1124       O  0.46945496  0.71948938  0.76090046    -0.83840
C1125       C  0.51220053  0.76558642  0.75429751     0.96670
O1126       O  0.55755515  0.77406653  0.77037307    -0.83870
O1127       O  0.62877281  0.75160125  0.81909122    -0.86510
C1128       C  0.63983740  0.72512563  0.84754143     1.01200
O1129       O  0.61075282  0.67214147  0.84957166    -0.79280
O1130       O  0.51787341  0.66758979  0.88868276    -0.79460
C1131       C  0.50853590  0.70965972  0.88512915     1.01150
O1132       O  0.41506860  0.61082664  0.85017145    -0.86790
O1133       O  0.43466871  0.61062556  0.75993866    -0.83850
C1134       C  0.46454411  0.62095298  0.72604745     0.96690
O1135       O  0.51592991  0.66319147  0.72255882    -0.83880
O1136       O  0.60428534  0.65893487  0.76185955    -0.86480
C1137       C  0.58034862  0.60594850  0.76385014     1.01160
O1138       O  0.54276497  0.57941306  0.79228547    -0.79300
O1139       O  0.44892387  0.55659807  0.84082990    -0.79450
C1140       C  0.41188174  0.56484863  0.85683349     1.01130
Cr1141     Cr  0.45703197  0.66519586  0.80555607     1.93740
Cr1142     Cr  0.57332904  0.70957041  0.77037973     1.93210
Cr1143     Cr  0.52915399  0.62131417  0.84094036     1.39100
O1144       O  0.52050781  0.66538074  0.80563482    -1.24540
O1145       O  0.71974725  0.48898769  0.98232278    -0.86790
O1146       O  0.71947942  0.46953997  0.73928732    -0.83840
C1147       C  0.76557671  0.51228428  0.74588966     0.96670
O1148       O  0.77404795  0.55762724  0.72981340    -0.83870
O1149       O  0.75155067  0.62883019  0.68111561    -0.86510
C1150       C  0.72506300  0.63989299  0.65267203     1.01200
O1151       O  0.67206740  0.61079415  0.98397107    -0.79280
O1152       O  0.66751477  0.51793036  0.94485820    -0.79460
C1153       C  0.70959578  0.50859871  0.94840023     1.01150
O1154       O  0.61077939  0.41515054  0.98338217    -0.86790
O1155       O  0.61059290  0.43473104  0.74027513    -0.83850
C1156       C  0.62092520  0.46459173  0.77416857     0.96690
O1157       O  0.66315927  0.51597565  0.77765126    -0.83880
O1158       O  0.65888222  0.60431983  0.73836359    -0.86480
C1159       C  0.60588866  0.58040022  0.73636994     1.01160
O1160       O  0.57934198  0.54282010  0.04127516    -0.79300
O1161       O  0.55652338  0.44898258  0.99272316    -0.79450
C1162       C  0.56478947  0.41195405  0.97672170     1.01130
Cr1163     Cr  0.66516432  0.45711464  0.69464791     1.93740
Cr1164     Cr  0.70952979  0.57338009  0.72982632     1.93210
Cr1165     Cr  0.62124155  0.52920716  0.99261098     1.39100
O1166       O  0.66533091  0.52057049  0.69457433    -1.24540
O1167       O  0.84173686  0.89639105  0.87120872    -0.86790
O1168       O  0.86142716  0.91569164  0.96151270    -0.83840
C1169       C  0.81866084  0.91894870  0.96815644     0.96670
O1170       O  0.77331475  0.88197899  0.61878203    -0.83870
O1171       O  0.70209850  0.78823754  0.90345228    -0.86510
C1172       C  0.69100547  0.75070284  0.87497980     1.01200
O1173       O  0.72005067  0.72679145  0.87293361    -0.79280
O1174       O  0.81281674  0.81519226  0.83373181    -0.79460
C1175       C  0.82207443  0.86657894  0.83729618     1.01150
O1176       O  0.91568346  0.86147341  0.87207812    -0.86790
O1177       O  0.89632649  0.84173988  0.96237871    -0.83850
C1178       C  0.86650109  0.82208376  0.66295451     0.96690
O1179       O  0.81510706  0.81283416  0.66651204    -0.83880
O1180       O  0.72670717  0.72009191  0.96062009    -0.86480
C1181       C  0.75063227  0.69105960  0.95857263     1.01160
O1182       O  0.78818413  0.70216762  0.93010441    -0.79300
O1183       O  0.88194662  0.77337325  0.88147682    -0.79450
C1184       C  0.91893282  0.81871087  0.86543371     1.01130
Cr1185     Cr  0.87380018  0.87383177  0.91679442     1.93740
Cr1186     Cr  0.75760734  0.80171456  0.95210151     1.93210
Cr1187     Cr  0.80167977  0.75768453  0.88146604     1.39100
O1188       O  0.81037023  0.81042079  0.91678683    -1.24540
loop_ 
_geom_bond_atom_site_label_1 
_geom_bond_atom_site_label_2 
_geom_bond_distance 
_geom_bond_site_symmetry_2 
_ccdc_geom_bond_type 
O1          Cr19   1.930       .  S
O1            C9   1.281       .  A
O2          Cr19   1.941       .  S
O2            C3   1.235       .  A
C3            O4   1.248       .  A
C3           C91   1.454       .  S
O4          Cr20   2.016       .  S
O5          Cr20   2.048       .  S
O5            C6   1.276       .  A
C6            O7   1.259       .  A
C6           C50   1.485   1_455  S
O7          Cr21   1.970       .  S
O8          Cr21   2.078       .  S
O8            C9   1.303       .  A
C9           C97   1.454       .  S
O10         Cr19   1.942       .  S
O10          C18   1.235       .  A
O11         Cr19   1.930       .  S
O11          C12   1.281       .  A
C12          O13   1.303       .  A
C12         C317   1.454       .  S
O13         Cr20   2.078       .  S
O14         Cr20   1.970       .  S
O14          C15   1.259       .  A
C15          O16   1.276       .  A
C15          C28   1.485       .  S
O16         Cr21   2.048       .  S
O17         Cr21   2.015       .  S
O17          C18   1.248       .  A
C18         C311   1.454       .  S
Cr19         O22   1.734       .  S
Cr20         O22   1.736       .  S
Cr21         O22   1.736       .  S
O23         Cr41   1.930   1_455  S
O23          C31   1.280       .  A
O24         Cr41   1.941   1_455  S
O24          C25   1.234       .  A
C25         O422   1.248       .  A
C25         C304   1.454       .  S
O26        Cr834   2.016       .  S
O26         C817   1.248       .  A
O27         Cr42   2.049       .  S
O27          C28   1.276       .  A
C28          O29   1.258       .  A
O29         Cr43   1.970   1_455  S
O30         Cr43   2.078   1_455  S
O30          C31   1.303       .  A
C31         C298   1.454       .  S
O32         Cr41   1.941       .  S
O32          C40   1.234       .  A
O33         Cr41   1.930       .  S
O33         C430   1.280       .  A
C34          O35   1.303       .  A
C34         O825   1.280       .  A
C34         C210   1.454   1_556  S
O35        Cr834   2.078   1_655  S
O36         Cr42   1.970   1_655  S
O36          C37   1.259       .  A
C37          O38   1.276       .  A
C37         C455   1.485       .  S
O38         Cr43   2.048       .  S
O39         Cr43   2.015       .  S
O39          C40   1.248       .  A
C40         C216   1.454       .  S
Cr41         O44   1.734       .  S
Cr42        O422   2.016       .  S
Cr42        O431   2.078   1_455  S
Cr42         O44   1.736   1_455  S
Cr43         O44   1.736       .  S
O45         Cr63   1.930       .  S
O45          C53   1.280       .  A
O46        Cr459   1.941       .  S
O46          C47   1.235       .  A
C47          O48   1.248       .  A
C47          C69   1.454       .  S
O48         Cr64   2.016       .  S
O49         Cr64   2.049       .  S
O49         C446   1.276       .  A
C50          O51   1.258       .  A
C50         O841   1.276       .  A
O51         Cr65   1.970       .  S
O52         Cr65   2.078       .  S
O52          C53   1.303       .  A
C53          C75   1.454       .  S
O54         Cr63   1.941       .  S
O54          C62   1.234       .  A
O55        Cr459   1.930       .  S
O55          C56   1.280       .  A
C56          O57   1.303       .  A
C56         C254   1.454       .  S
O57         Cr64   2.078       .  S
O58         Cr64   1.970       .  S
O58         C455   1.259       .  A
C59          O60   1.276   1_556  A
C59         O850   1.259       .  A
C59         C829   1.485       .  S
O60         Cr65   2.048       .  S
O61         Cr65   2.015       .  S
O61          C62   1.248       .  A
C62         C260   1.454       .  S
Cr63        O838   1.941   1_554  S
Cr63        O847   1.930   1_554  S
Cr63         O66   1.734       .  S
Cr64        O462   1.736       .  S
Cr65         O66   1.736       .  S
O66        Cr856   1.736   1_554  S
O67         Cr85   1.941       .  S
O67          C75   1.235       .  A
O68         Cr85   1.930       .  S
O68          C69   1.281       .  A
C69          O70   1.303       .  A
O70         Cr86   2.078       .  S
O71         Cr86   1.970       .  S
O71          C72   1.259       .  A
C72          O73   1.276       .  A
C72          C94   1.485   1_655  S
O73         Cr87   2.048       .  S
O74         Cr87   2.016       .  S
O74          C75   1.248       .  A
O76         Cr85   1.930       .  S
O76          C84   1.281       .  A
O77         Cr85   1.942       .  S
O77          C78   1.235       .  A
C78          O79   1.248       .  A
C78         C361   1.454       .  S
O79         Cr86   2.015       .  S
O80         Cr86   2.048       .  S
O80          C81   1.276       .  A
C81          O82   1.259       .  A
C81         C116   1.485       .  S
O82         Cr87   1.971       .  S
O83         Cr87   2.078       .  S
O83          C84   1.303       .  A
C84         C355   1.454       .  S
Cr85         O88   1.734       .  S
Cr86         O88   1.736       .  S
Cr87         O88   1.736       .  S
O89        Cr899   1.941   1_554  S
O89          C97   1.234       .  A
O90        Cr107   1.930       .  S
O90          C91   1.280       .  A
C91          O92   1.303       .  A
O92        Cr108   2.078       .  S
O93        Cr108   1.970       .  S
O93          C94   1.258       .  A
C94         O491   1.276       .  A
O95        Cr109   2.049   1_556  S
O95         C886   1.276       .  A
O96        Cr109   2.016       .  S
O96          C97   1.248       .  A
O98        Cr899   1.930   1_554  S
O98         C106   1.280       .  A
O99        Cr107   1.941       .  S
O99         C100   1.234       .  A
C100        O101   1.248       .  A
C100        C144   1.454       .  S
O101       Cr108   2.015       .  S
O102       Cr108   2.048       .  S
O102        C103   1.276       .  A
C103        O500   1.259       .  A
C103        C521   1.485       .  S
O104       Cr109   1.970       .  S
O104        C895   1.259       .  A
O105       Cr109   2.078       .  S
O105        C106   1.303       .  A
C106        C150   1.454       .  S
Cr107       O485   1.941       .  S
Cr107       O494   1.930       .  S
Cr107       O110   1.734       .  S
Cr108       O110   1.736       .  S
Cr109       O902   1.736   1_554  S
O110       Cr505   1.736       .  S
O111       Cr129   1.941       .  S
O111        C119   1.234       .  A
O112       Cr129   1.930       .  S
O112        C113   1.280       .  A
C113        O114   1.303       .  A
C113        C392   1.454       .  S
O114       Cr130   2.078   1_655  S
O115       Cr130   1.970   1_655  S
O115        C116   1.258       .  A
C116        O117   1.276       .  A
O117       Cr131   2.049       .  S
O118       Cr527   2.016       .  S
O118        C515   1.248       .  A
C119        O910   1.248       .  A
C119        C386   1.454   1_554  S
O120       Cr129   1.930   1_455  S
O120        C920   1.280       .  A
O121       Cr129   1.941   1_455  S
O121        C122   1.234       .  A
C122        O123   1.248       .  A
C122        C166   1.454       .  S
O123       Cr130   2.015       .  S
O124       Cr130   2.048       .  S
O124        C125   1.276       .  A
C125        O126   1.259       .  A
C125        C895   1.485       .  S
O126       Cr131   1.970   1_455  S
O127       Cr527   2.078   1_455  S
O127        C128   1.303       .  A
C128        O516   1.280       .  A
C128        C172   1.454       .  S
Cr129       O132   1.734       .  S
Cr130       O132   1.736   1_455  S
Cr131       O910   2.016       .  S
Cr131       O919   2.078   1_655  S
Cr131       O132   1.736       .  S
O133       Cr151   1.930       .  S
O133        C141   1.280       .  A
O134       Cr151   1.941       .  S
O134        C135   1.234       .  A
C135        O136   1.248       .  A
C135        C223   1.454       .  S
O136       Cr152   2.016       .  S
O137       Cr152   2.049       .  S
O137        C138   1.276       .  A
C138        O139   1.258       .  A
C138        C182   1.485   1_565  S
O139       Cr153   1.970       .  S
O140       Cr153   2.078       .  S
O140        C141   1.303       .  A
C141        C229   1.454       .  S
O142       Cr151   1.941       .  S
O142        C150   1.234       .  A
O143       Cr151   1.930       .  S
O143        C144   1.280       .  A
C144        O145   1.303       .  A
O145       Cr152   2.078       .  S
O146       Cr152   1.970       .  S
O146        C147   1.259       .  A
C147        O148   1.276       .  A
C147        C169   1.485       .  S
O148       Cr153   2.048       .  S
O149       Cr153   2.015       .  S
O149        C150   1.248       .  A
Cr151       O154   1.734       .  S
Cr152       O154   1.736       .  S
Cr153       O154   1.736       .  S
O155       Cr173   1.930   1_545  S
O155        C559   1.280       .  A
O156       Cr173   1.941   1_545  S
O156        C157   1.235       .  A
C157        O158   1.248       .  A
C157        C289   1.454       .  S
O158       Cr174   2.016       .  S
O159       Cr174   2.049       .  S
O159        C160   1.276       .  A
C160        O161   1.258       .  A
C160        C587   1.485       .  S
O161       Cr175   1.970   1_545  S
O162       Cr967   2.078   1_545  S
O162        C163   1.303       .  A
C163        O947   1.280       .  A
C163        C295   1.454   1_556  S
O164       Cr173   1.941       .  S
O164        C172   1.234       .  A
O165       Cr173   1.930       .  S
O165        C166   1.280       .  A
C166        O167   1.303       .  A
O167       Cr174   2.078   1_565  S
O168       Cr174   1.970   1_565  S
O168        C169   1.259       .  A
C169        O170   1.276       .  A
O170       Cr175   2.048       .  S
O171       Cr967   2.015       .  S
O171        C964   1.248       .  A
C172        O567   1.248       .  A
Cr173       O176   1.734       .  S
Cr174       O176   1.736   1_545  S
Cr175       O558   2.078   1_565  S
Cr175       O567   2.015       .  S
Cr175       O176   1.736       .  S
O177       Cr195   1.930       .  S
O177        C185   1.281       .  A
O178       Cr591   1.942       .  S
O178        C179   1.235       .  A
C179        O180   1.248       .  A
C179        C245   1.454       .  S
O180       Cr196   2.015       .  S
O181       Cr196   2.048       .  S
O181        C578   1.276       .  A
C182        O183   1.259       .  A
C182        O973   1.276       .  A
O183       Cr197   1.971       .  S
O184       Cr197   2.078       .  S
O184        C185   1.303       .  A
C185        C251   1.454       .  S
O186       Cr195   1.941       .  S
O186        C194   1.235       .  A
O187       Cr591   1.930       .  S
O187        C188   1.281       .  A
C188        O189   1.303       .  A
C188        C273   1.454       .  S
O189       Cr196   2.078       .  S
O190       Cr196   1.970       .  S
O190        C587   1.259       .  A
C191        O192   1.276   1_556  A
C191        O982   1.259       .  A
C191        C952   1.485       .  S
O192       Cr197   2.048       .  S
O193       Cr197   2.016       .  S
O193        C194   1.248       .  A
C194        C267   1.454       .  S
Cr195       O970   1.942   1_554  S
Cr195       O979   1.930   1_554  S
Cr195       O198   1.734       .  S
Cr196       O594   1.736       .  S
Cr197       O198   1.736       .  S
O198       Cr988   1.736   1_554  S
O199       Cr217   1.941       .  S
O199        C207   1.235       .  A
O200       Cr217   1.930       .  S
O200        C993   1.280       .  A
C201        O202   1.303       .  A
C201        O596   1.280       .  A
C201        C377   1.454       .  S
O202       Cr614   2.078   1_565  S
O203       Cr218   1.970   1_565  S
O203        C204   1.258       .  A
C204        O205   1.276       .  A
C204       C1027   1.485       .  S
O205       Cr219   2.049       .  S
O206       Cr219   2.016       .  S
O206        C207   1.248       .  A
C207        C383   1.454       .  S
O208       Cr217   1.930   1_545  S
O208        C216   1.280       .  A
O209       Cr217   1.941   1_545  S
O209        C210   1.234       .  A
C210       O1003   1.248       .  A
O211       Cr614   2.015       .  S
O211        C606   1.248       .  A
O212       Cr218   2.048       .  S
O212        C213   1.276       .  A
C213        O214   1.259       .  A
C213        C257   1.485       .  S
O214       Cr219   1.970   1_545  S
O215       Cr219   2.078   1_545  S
O215        C216   1.303       .  A
Cr217       O220   1.734       .  S
Cr218       O994   2.078   1_545  S
Cr218      O1003   2.015       .  S
Cr218       O220   1.736   1_545  S
Cr219       O220   1.736       .  S
O221      Cr1031   1.942   1_554  S
O221        C229   1.235       .  A
O222       Cr239   1.930       .  S
O222        C223   1.281       .  A
C223        O224   1.303       .  A
O224       Cr240   2.078       .  S
O225       Cr240   1.970       .  S
O225        C226   1.259       .  A
C226        O623   1.276       .  A
C226        C248   1.485   1_565  S
O227       Cr241   2.048   1_556  S
O227       C1018   1.276       .  A
O228       Cr241   2.015       .  S
O228        C229   1.248       .  A
O230      Cr1031   1.930   1_554  S
O230        C238   1.281       .  A
O231       Cr239   1.941       .  S
O231        C232   1.235       .  A
C232        O233   1.248       .  A
C232        C339   1.454       .  S
O233       Cr240   2.016       .  S
O234       Cr240   2.048       .  S
O234        C235   1.276       .  A
C235        O632   1.259       .  A
C235        C600   1.485       .  S
O236       Cr241   1.970       .  S
O236       C1027   1.259       .  A
O237       Cr241   2.078       .  S
O237        C238   1.303       .  A
C238        C333   1.454       .  S
Cr239       O617   1.942       .  S
Cr239       O626   1.930       .  S
Cr239       O242   1.734       .  S
Cr240       O242   1.736       .  S
Cr241      O1034   1.736   1_554  S
O242       Cr637   1.736       .  S
O243       Cr261   1.941       .  S
O243        C251   1.234       .  A
O244       Cr261   1.930       .  S
O244        C245   1.280       .  A
C245        O246   1.303       .  A
O246       Cr262   2.078       .  S
O247       Cr262   1.970       .  S
O247        C248   1.258       .  A
C248        O249   1.276       .  A
O249       Cr263   2.049       .  S
O250       Cr263   2.016       .  S
O250        C251   1.248       .  A
O252       Cr261   1.930       .  S
O252        C260   1.280       .  A
O253       Cr261   1.941       .  S
O253        C254   1.234       .  A
C254        O255   1.248       .  A
O255       Cr262   2.015       .  S
O256       Cr262   2.048       .  S
O256        C257   1.276       .  A
C257        O258   1.259       .  A
O258       Cr263   1.970       .  S
O259       Cr263   2.078       .  S
O259        C260   1.303       .  A
Cr261       O264   1.734       .  S
Cr262       O264   1.736       .  S
Cr263       O264   1.736       .  S
O265       Cr283   1.941       .  S
O265        C273   1.235       .  A
O266       Cr283   1.930       .  S
O266        C267   1.280       .  A
C267        O268   1.303       .  A
O268       Cr284   2.078       .  S
O269       Cr284   1.970       .  S
O269        C270   1.258       .  A
C270        O271   1.276       .  A
C270        C292   1.485       .  S
O271       Cr285   2.049       .  S
O272       Cr285   2.016       .  S
O272        C273   1.248       .  A
O274       Cr283   1.930       .  S
O274        C282   1.280       .  A
O275       Cr283   1.941       .  S
O275        C276   1.234       .  A
C276        O277   1.248       .  A
C276        C364   1.454       .  S
O277       Cr284   2.015       .  S
O278       Cr284   2.048       .  S
O278        C279   1.276       .  A
C279        O280   1.259       .  A
C279        C323   1.485       .  S
O280       Cr285   1.970       .  S
O281       Cr285   2.078       .  S
O281        C282   1.303       .  A
C282        C370   1.454       .  S
Cr283       O286   1.734       .  S
Cr284       O286   1.736       .  S
Cr285       O286   1.736       .  S
O287       Cr305   1.941       .  S
O287        C295   1.235       .  A
O288       Cr305   1.930       .  S
O288        C289   1.281       .  A
C289        O290   1.303       .  A
O290       Cr306   2.078       .  S
O291       Cr306   1.970       .  S
O291        C292   1.259       .  A
C292        O293   1.276       .  A
O293       Cr307   2.048       .  S
O294       Cr703   2.016       .  S
O294        C691   1.248       .  A
C295       O1086   1.248       .  A
O296       Cr305   1.930       .  S
O296       C1096   1.281       .  A
O297       Cr305   1.942       .  S
O297        C298   1.235       .  A
C298        O299   1.248       .  A
O299       Cr306   2.015       .  S
O300       Cr306   2.048       .  S
O300        C301   1.276       .  A
C301        O302   1.259       .  A
C301       C1106   1.485       .  S
O302       Cr307   1.970       .  S
O303       Cr703   2.078       .  S
O303        C304   1.303       .  A
C304        O692   1.281       .  A
Cr305       O308   1.734       .  S
Cr306       O308   1.736       .  S
Cr307      O1086   2.016       .  S
Cr307      O1095   2.078       .  S
Cr307       O308   1.736       .  S
O309       Cr327   1.941       .  S
O309        C317   1.234       .  A
O310      Cr1119   1.930   1_554  S
O310        C311   1.280       .  A
C311        O312   1.303       .  A
O312       Cr328   2.078       .  S
O313       Cr328   1.970       .  S
O313       C1106   1.258       .  A
C314        O315   1.276       .  A
C314        O709   1.258       .  A
C314        C697   1.485       .  S
O315       Cr329   2.049       .  S
O316       Cr329   2.016       .  S
O316        C317   1.248       .  A
O318       Cr327   1.930       .  S
O318        C326   1.280       .  A
O319      Cr1119   1.941   1_554  S
O319        C320   1.234       .  A
C320        O321   1.248       .  A
C320        C342   1.454       .  S
O321       Cr328   2.015       .  S
O322       Cr328   2.048   1_556  S
O322       C1115   1.276       .  A
C323        O324   1.259       .  A
C323        O718   1.276       .  A
O324       Cr329   1.970       .  S
O325       Cr329   2.078       .  S
O325        C326   1.303       .  A
C326        C348   1.454       .  S
Cr327       O706   1.930       .  S
Cr327       O715   1.941       .  S
Cr327       O330   1.734       .  S
Cr328      O1122   1.736   1_554  S
Cr329       O330   1.736       .  S
O330       Cr724   1.736       .  S
O331       Cr349   1.930       .  S
O331        C339   1.280       .  A
O332       Cr349   1.941       .  S
O332        C333   1.234       .  A
C333        O334   1.248       .  A
O334       Cr350   2.016       .  S
O335       Cr350   2.049       .  S
O335        C336   1.276       .  A
C336        O337   1.258       .  A
C336        C380   1.485       .  S
O337       Cr351   1.970       .  S
O338       Cr351   2.078       .  S
O338        C339   1.303       .  A
O340       Cr349   1.941       .  S
O340        C348   1.234       .  A
O341       Cr349   1.930       .  S
O341        C342   1.280       .  A
C342        O343   1.303       .  A
O343       Cr350   2.078       .  S
O344       Cr350   1.970       .  S
O344        C345   1.259       .  A
C345        O346   1.276       .  A
C345        C367   1.485       .  S
O346       Cr351   2.048       .  S
O347       Cr351   2.015       .  S
O347        C348   1.248       .  A
Cr349       O352   1.734       .  S
Cr350       O352   1.736       .  S
Cr351       O352   1.736       .  S
O353       Cr767   1.930       .  S
O353        C361   1.280       .  A
O354       Cr371   1.941       .  S
O354        C355   1.234       .  A
C355        O356   1.248       .  A
O356       Cr372   2.016       .  S
O357       Cr372   2.049       .  S
O357        C358   1.276   1_554  A
C358       O1151   1.258       .  A
C358       C1181   1.485       .  S
O359       Cr373   1.970       .  S
O359        C754   1.258       .  A
O360       Cr373   2.078       .  S
O360        C361   1.303       .  A
O362       Cr767   1.941       .  S
O362        C370   1.234       .  A
O363       Cr371   1.930       .  S
O363        C364   1.280       .  A
C364        O365   1.303       .  A
O365       Cr372   2.078       .  S
O366       Cr372   1.970       .  S
O366        C367   1.259       .  A
C367       O1160   1.276       .  A
O368       Cr373   2.048       .  S
O368        C763   1.276       .  A
O369       Cr373   2.015       .  S
O369        C370   1.248       .  A
Cr371      O1145   1.930   1_554  S
Cr371      O1154   1.941   1_554  S
Cr371       O374   1.734       .  S
Cr372       O374   1.736       .  S
Cr373       O770   1.736       .  S
O374      Cr1165   1.736   1_554  S
O375       Cr393   1.930       .  S
O375        C383   1.281       .  A
O376       Cr393   1.941       .  S
O376        C377   1.235       .  A
C377        O774   1.248       .  A
O378      Cr1186   2.016       .  S
O378       C1169   1.248       .  A
O379       Cr394   2.048       .  S
O379        C380   1.276       .  A
C380        O381   1.259       .  A
O381       Cr395   1.970       .  S
O382       Cr395   2.078       .  S
O382        C383   1.303       .  A
O384       Cr393   1.941       .  S
O384        C392   1.235       .  A
O385       Cr393   1.930       .  S
O385        C782   1.281       .  A
C386        O387   1.303       .  A
C386       O1177   1.281       .  A
O387      Cr1186   2.078       .  S
O388       Cr394   1.970       .  S
O388        C389   1.259       .  A
C389        O390   1.276       .  A
C389        C754   1.485       .  S
O390       Cr395   2.048       .  S
O391       Cr395   2.015       .  S
O391        C392   1.248       .  A
Cr393       O396   1.734       .  S
Cr394       O774   2.016       .  S
Cr394       O783   2.078       .  S
Cr394       O396   1.736       .  S
Cr395       O396   1.736       .  S
O397       Cr415   1.930       .  S
O397        C405   1.281       .  A
O398       Cr415   1.941       .  S
O398        C399   1.235       .  A
C399        O400   1.248       .  A
C399        C487   1.454       .  S
O400       Cr416   2.016       .  S
O401       Cr416   2.048       .  S
O401        C402   1.276       .  A
C402        O403   1.259       .  A
C402        C446   1.485   1_455  S
O403       Cr417   1.970       .  S
O404       Cr417   2.078       .  S
O404        C405   1.303       .  A
C405        C493   1.454       .  S
O406       Cr415   1.942       .  S
O406        C414   1.235       .  A
O407       Cr415   1.930       .  S
O407        C408   1.281       .  A
C408        O409   1.303       .  A
C408        C713   1.454       .  S
O409       Cr416   2.078       .  S
O410       Cr416   1.970       .  S
O410        C411   1.259       .  A
C411        O412   1.276       .  A
C411        C424   1.485       .  S
O412       Cr417   2.048       .  S
O413       Cr417   2.015       .  S
O413        C414   1.248       .  A
C414        C707   1.454       .  S
Cr415       O418   1.734       .  S
Cr416       O418   1.736       .  S
Cr417       O418   1.736       .  S
O419       Cr437   1.930   1_455  S
O419        C427   1.280       .  A
O420       Cr437   1.941   1_455  S
O420        C421   1.234       .  A
C421        O818   1.248       .  A
C421        C700   1.454       .  S
O423       Cr438   2.049       .  S
O423        C424   1.276       .  A
C424        O425   1.258       .  A
O425       Cr439   1.970   1_455  S
O426       Cr439   2.078   1_455  S
O426        C427   1.303       .  A
C427        C694   1.454       .  S
O428       Cr437   1.941       .  S
O428        C436   1.234       .  A
O429       Cr437   1.930       .  S
O429        C826   1.280       .  A
C430        O431   1.303       .  A
C430        C606   1.454       .  S
O432       Cr438   1.970   1_655  S
O432        C433   1.259       .  A
C433        O434   1.276       .  A
C433        C851   1.485       .  S
O434       Cr439   2.048       .  S
O435       Cr439   2.015       .  S
O435        C436   1.248       .  A
C436        C612   1.454       .  S
Cr437       O440   1.734       .  S
Cr438       O818   2.016       .  S
Cr438       O827   2.078   1_455  S
Cr438       O440   1.736   1_455  S
Cr439       O440   1.736       .  S
O441       Cr459   1.930       .  S
O441        C449   1.280       .  A
O442       Cr855   1.941       .  S
O442        C443   1.235       .  A
C443        O444   1.248       .  A
C443        C465   1.454       .  S
O444       Cr460   2.016       .  S
O445       Cr460   2.049       .  S
O445        C842   1.276       .  A
C446        O447   1.258       .  A
O447       Cr461   1.970       .  S
O448       Cr461   2.078       .  S
O448        C449   1.303       .  A
C449        C471   1.454       .  S
O450       Cr459   1.941       .  S
O450        C458   1.234       .  A
O451       Cr855   1.930       .  S
O451        C452   1.280       .  A
C452        O453   1.303       .  A
C452        C650   1.454       .  S
O453       Cr460   2.078       .  S
O454       Cr460   1.970       .  S
O454        C851   1.259       .  A
C455        O456   1.276       .  A
O456       Cr461   2.048       .  S
O457       Cr461   2.015       .  S
O457        C458   1.248       .  A
C458        C656   1.454       .  S
Cr459       O462   1.734       .  S
Cr460       O858   1.736       .  S
Cr461       O462   1.736       .  S
O463       Cr481   1.941       .  S
O463        C471   1.235       .  A
O464       Cr481   1.930       .  S
O464        C465   1.281       .  A
C465        O466   1.303       .  A
O466       Cr482   2.078       .  S
O467       Cr482   1.970       .  S
O467        C468   1.259       .  A
C468        O469   1.276       .  A
C468        C490   1.485   1_655  S
O469       Cr483   2.048       .  S
O470       Cr483   2.016       .  S
O470        C471   1.248       .  A
O472       Cr481   1.930       .  S
O472        C480   1.281       .  A
O473       Cr481   1.942       .  S
O473        C474   1.235       .  A
C474        O475   1.248       .  A
C474        C757   1.454       .  S
O475       Cr482   2.015       .  S
O476       Cr482   2.048       .  S
O476        C477   1.276       .  A
C477        O478   1.259       .  A
C477        C512   1.485       .  S
O478       Cr483   1.971       .  S
O479       Cr483   2.078       .  S
O479        C480   1.303       .  A
C480        C751   1.454       .  S
Cr481       O484   1.734       .  S
Cr482       O484   1.736       .  S
Cr483       O484   1.736       .  S
O485        C493   1.234       .  A
O486       Cr503   1.930       .  S
O486        C487   1.280       .  A
C487        O488   1.303       .  A
O488       Cr504   2.078       .  S
O489       Cr504   1.970       .  S
O489        C490   1.258       .  A
C490        O887   1.276       .  A
O491       Cr505   2.049       .  S
O492       Cr505   2.016       .  S
O492        C493   1.248       .  A
O494        C502   1.280       .  A
O495       Cr503   1.941       .  S
O495        C496   1.234       .  A
C496        O497   1.248       .  A
C496        C540   1.454       .  S
O497       Cr504   2.015       .  S
O498       Cr504   2.048       .  S
O498        C499   1.276       .  A
C499        O896   1.259       .  A
C499        C917   1.485       .  S
O500       Cr505   1.970       .  S
O501       Cr505   2.078       .  S
O501        C502   1.303       .  A
C502        C546   1.454       .  S
Cr503       O881   1.941       .  S
Cr503       O890   1.930       .  S
Cr503       O506   1.734       .  S
Cr504       O506   1.736       .  S
O506       Cr901   1.736       .  S
O507       Cr525   1.941       .  S
O507        C515   1.234       .  A
O508       Cr525   1.930       .  S
O508        C509   1.280       .  A
C509        O510   1.303       .  A
C509        C788   1.454       .  S
O510       Cr526   2.078   1_655  S
O511       Cr526   1.970   1_655  S
O511        C512   1.258       .  A
C512        O513   1.276       .  A
O513       Cr527   2.049       .  S
O514       Cr923   2.016       .  S
O514        C911   1.248       .  A
C515        C782   1.454       .  S
O516       Cr525   1.930   1_455  S
O517       Cr525   1.941   1_455  S
O517        C518   1.234       .  A
C518        O519   1.248       .  A
C518        C562   1.454       .  S
O519       Cr526   2.015       .  S
O520       Cr526   2.048       .  S
O520        C521   1.276       .  A
C521        O522   1.259       .  A
O522       Cr527   1.970   1_455  S
O523       Cr923   2.078   1_455  S
O523        C524   1.303       .  A
C524        O912   1.280       .  A
C524        C568   1.454       .  S
Cr525       O528   1.734       .  S
Cr526       O528   1.736   1_455  S
Cr527       O528   1.736       .  S
O529       Cr547   1.930       .  S
O529        C537   1.280       .  A
O530       Cr547   1.941       .  S
O530        C531   1.234       .  A
C531        O532   1.248       .  A
C531        C619   1.454       .  S
O532       Cr548   2.016       .  S
O533       Cr548   2.049       .  S
O533        C534   1.276       .  A
C534        O535   1.258       .  A
C534        C578   1.485   1_565  S
O535       Cr549   1.970       .  S
O536       Cr549   2.078       .  S
O536        C537   1.303       .  A
C537        C625   1.454       .  S
O538       Cr547   1.941       .  S
O538        C546   1.234       .  A
O539       Cr547   1.930       .  S
O539        C540   1.280       .  A
C540        O541   1.303       .  A
O541       Cr548   2.078       .  S
O542       Cr548   1.970       .  S
O542        C543   1.259       .  A
C543        O544   1.276       .  A
C543        C565   1.485       .  S
O544       Cr549   2.048       .  S
O545       Cr549   2.015       .  S
O545        C546   1.248       .  A
Cr547       O550   1.734       .  S
Cr548       O550   1.736       .  S
Cr549       O550   1.736       .  S
O551       Cr569   1.930   1_545  S
O551        C955   1.280       .  A
O552       Cr569   1.941   1_545  S
O552        C553   1.235       .  A
C553        O554   1.248       .  A
C553        C685   1.454       .  S
O554       Cr570   2.016       .  S
O555       Cr570   2.049       .  S
O555        C556   1.276       .  A
C556        O557   1.258       .  A
C556        C983   1.485       .  S
O557       Cr571   1.970   1_545  S
O558        C559   1.303       .  A
C559        C691   1.454       .  S
O560       Cr569   1.941       .  S
O560        C568   1.234       .  A
O561       Cr569   1.930       .  S
O561        C562   1.280       .  A
C562        O563   1.303       .  A
O563       Cr570   2.078   1_565  S
O564       Cr570   1.970   1_565  S
O564        C565   1.259       .  A
C565        O566   1.276       .  A
O566       Cr571   2.048       .  S
C568        O963   1.248       .  A
Cr569       O572   1.734       .  S
Cr570       O572   1.736   1_545  S
Cr571       O954   2.078   1_565  S
Cr571       O963   2.015       .  S
Cr571       O572   1.736       .  S
O573       Cr591   1.930       .  S
O573        C581   1.281       .  A
O574       Cr987   1.942       .  S
O574        C575   1.235       .  A
C575        O576   1.248       .  A
C575        C641   1.454       .  S
O576       Cr592   2.015       .  S
O577       Cr592   2.048       .  S
O577        C974   1.276       .  A
C578        O579   1.259       .  A
O579       Cr593   1.971       .  S
O580       Cr593   2.078       .  S
O580        C581   1.303       .  A
C581        C647   1.454       .  S
O582       Cr591   1.941       .  S
O582        C590   1.235       .  A
O583       Cr987   1.930       .  S
O583        C584   1.281       .  A
C584        O585   1.303       .  A
C584        C669   1.454       .  S
O585       Cr592   2.078       .  S
O586       Cr592   1.970       .  S
O586        C983   1.259       .  A
C587        O588   1.276       .  A
O588       Cr593   2.048       .  S
O589       Cr593   2.016       .  S
O589        C590   1.248       .  A
C590        C663   1.454       .  S
Cr591       O594   1.734       .  S
Cr592       O990   1.736       .  S
Cr593       O594   1.736       .  S
O595       Cr613   1.941       .  S
O595        C603   1.235       .  A
O596       Cr613   1.930       .  S
C597        O992   1.280       .  A
C597        O598   1.303       .  A
C597        C773   1.454       .  S
O598      Cr1010   2.078   1_565  S
O599       Cr614   1.970   1_565  S
O599        C600   1.258       .  A
C600        O601   1.276       .  A
O601       Cr615   2.049       .  S
O602       Cr615   2.016       .  S
O602        C603   1.248       .  A
C603        C779   1.454       .  S
O604       Cr613   1.930   1_545  S
O604        C612   1.280       .  A
O605       Cr613   1.941   1_545  S
O605        C606   1.234       .  A
O607      Cr1010   2.015       .  S
O607       C1002   1.248       .  A
O608       Cr614   2.048       .  S
O608        C609   1.276       .  A
C609        O610   1.259       .  A
C609        C653   1.485       .  S
O610       Cr615   1.970   1_545  S
O611       Cr615   2.078   1_545  S
O611        C612   1.303       .  A
Cr613       O616   1.734       .  S
Cr614       O616   1.736   1_545  S
Cr615       O616   1.736       .  S
O617        C625   1.235       .  A
O618       Cr635   1.930       .  S
O618        C619   1.281       .  A
C619        O620   1.303       .  A
O620       Cr636   2.078       .  S
O621       Cr636   1.970       .  S
O621        C622   1.259       .  A
C622       O1019   1.276       .  A
C622        C644   1.485   1_565  S
O623       Cr637   2.048       .  S
O624       Cr637   2.015       .  S
O624        C625   1.248       .  A
O626        C634   1.281       .  A
O627       Cr635   1.941       .  S
O627        C628   1.235       .  A
C628        O629   1.248       .  A
C628        C735   1.454       .  S
O629       Cr636   2.016       .  S
O630       Cr636   2.048       .  S
O630        C631   1.276       .  A
C631       O1028   1.259       .  A
C631        C996   1.485       .  S
O632       Cr637   1.970       .  S
O633       Cr637   2.078       .  S
O633        C634   1.303       .  A
C634        C729   1.454       .  S
Cr635      O1013   1.942       .  S
Cr635      O1022   1.930       .  S
Cr635       O638   1.734       .  S
Cr636       O638   1.736       .  S
O638      Cr1033   1.736       .  S
O639       Cr657   1.941       .  S
O639        C647   1.234       .  A
O640       Cr657   1.930       .  S
O640        C641   1.280       .  A
C641        O642   1.303       .  A
O642       Cr658   2.078       .  S
O643       Cr658   1.970       .  S
O643        C644   1.258       .  A
C644        O645   1.276       .  A
O645       Cr659   2.049       .  S
O646       Cr659   2.016       .  S
O646        C647   1.248       .  A
O648       Cr657   1.930       .  S
O648        C656   1.280       .  A
O649       Cr657   1.941       .  S
O649        C650   1.234       .  A
C650        O651   1.248       .  A
O651       Cr658   2.015       .  S
O652       Cr658   2.048       .  S
O652        C653   1.276       .  A
C653        O654   1.259       .  A
O654       Cr659   1.970       .  S
O655       Cr659   2.078       .  S
O655        C656   1.303       .  A
Cr657       O660   1.734       .  S
Cr658       O660   1.736       .  S
Cr659       O660   1.736       .  S
O661       Cr679   1.941       .  S
O661        C669   1.235       .  A
O662       Cr679   1.930       .  S
O662        C663   1.280       .  A
C663        O664   1.303       .  A
O664       Cr680   2.078       .  S
O665       Cr680   1.970       .  S
O665        C666   1.258       .  A
C666        O667   1.276       .  A
C666        C688   1.485       .  S
O667       Cr681   2.049       .  S
O668       Cr681   2.016       .  S
O668        C669   1.248       .  A
O670       Cr679   1.930       .  S
O670        C678   1.280       .  A
O671       Cr679   1.941       .  S
O671        C672   1.234       .  A
C672        O673   1.248       .  A
C672        C760   1.454       .  S
O673       Cr680   2.015       .  S
O674       Cr680   2.048       .  S
O674        C675   1.276       .  A
C675        O676   1.259       .  A
C675        C719   1.485       .  S
O676       Cr681   1.970       .  S
O677       Cr681   2.078       .  S
O677        C678   1.303       .  A
C678        C766   1.454       .  S
Cr679       O682   1.734       .  S
Cr680       O682   1.736       .  S
Cr681       O682   1.736       .  S
O683       Cr701   1.941       .  S
O683        C691   1.235       .  A
O684       Cr701   1.930       .  S
O684        C685   1.281       .  A
C685        O686   1.303       .  A
O686       Cr702   2.078       .  S
O687       Cr702   1.970       .  S
O687        C688   1.259       .  A
C688        O689   1.276       .  A
O689       Cr703   2.048       .  S
O690      Cr1099   2.016       .  S
O690       C1087   1.248       .  A
O692       Cr701   1.930       .  S
O693       Cr701   1.942       .  S
O693        C694   1.235       .  A
C694        O695   1.248       .  A
O695       Cr702   2.015       .  S
O696       Cr702   2.048       .  S
O696        C697   1.276       .  A
C697        O698   1.259       .  A
O698       Cr703   1.970       .  S
O699      Cr1099   2.078       .  S
O699        C700   1.303       .  A
C700       O1088   1.281       .  A
Cr701       O704   1.734       .  S
Cr702       O704   1.736       .  S
Cr703       O704   1.736       .  S
O705       Cr723   1.941       .  S
O705        C713   1.234       .  A
O706        C707   1.280       .  A
C707        O708   1.303       .  A
O708       Cr724   2.078       .  S
O709       Cr724   1.970       .  S
C710       O1105   1.258       .  A
C710        O711   1.276       .  A
C710       C1093   1.485       .  S
O711       Cr725   2.049       .  S
O712       Cr725   2.016       .  S
O712        C713   1.248       .  A
O714       Cr723   1.930       .  S
O714        C722   1.280       .  A
O715        C716   1.234       .  A
C716        O717   1.248       .  A
C716        C738   1.454       .  S
O717       Cr724   2.015       .  S
O718       Cr724   2.048       .  S
C719       O1114   1.276       .  A
C719        O720   1.259       .  A
O720       Cr725   1.970       .  S
O721       Cr725   2.078       .  S
O721        C722   1.303       .  A
C722        C744   1.454       .  S
Cr723      O1102   1.930       .  S
Cr723      O1111   1.941       .  S
Cr723       O726   1.734       .  S
Cr725       O726   1.736       .  S
O726      Cr1120   1.736       .  S
O727       Cr745   1.930       .  S
O727        C735   1.280       .  A
O728       Cr745   1.941       .  S
O728        C729   1.234       .  A
C729        O730   1.248       .  A
O730       Cr746   2.016       .  S
O731       Cr746   2.049       .  S
O731        C732   1.276       .  A
C732        O733   1.258       .  A
C732        C776   1.485       .  S
O733       Cr747   1.970       .  S
O734       Cr747   2.078       .  S
O734        C735   1.303       .  A
O736       Cr745   1.941       .  S
O736        C744   1.234       .  A
O737       Cr745   1.930       .  S
O737        C738   1.280       .  A
C738        O739   1.303       .  A
O739       Cr746   2.078       .  S
O740       Cr746   1.970       .  S
O740        C741   1.259       .  A
C741        O742   1.276       .  A
C741        C763   1.485       .  S
O742       Cr747   2.048       .  S
O743       Cr747   2.015       .  S
O743        C744   1.248       .  A
Cr745       O748   1.734       .  S
Cr746       O748   1.736       .  S
Cr747       O748   1.736       .  S
O749      Cr1163   1.930       .  S
O749        C757   1.280       .  A
O750       Cr767   1.941       .  S
O750        C751   1.234       .  A
C751        O752   1.248       .  A
O752       Cr768   2.016       .  S
O753       Cr768   2.049       .  S
O753        C754   1.276       .  A
O755       Cr769   1.970       .  S
O755       C1150   1.258       .  A
O756       Cr769   2.078       .  S
O756        C757   1.303       .  A
O758      Cr1163   1.941       .  S
O758        C766   1.234       .  A
O759       Cr767   1.930       .  S
O759        C760   1.280       .  A
C760        O761   1.303       .  A
O761       Cr768   2.078       .  S
O762       Cr768   1.970       .  S
O762        C763   1.259       .  A
O764       Cr769   2.048       .  S
O764       C1159   1.276       .  A
O765       Cr769   2.015       .  S
O765        C766   1.248       .  A
Cr767       O770   1.734       .  S
Cr768       O770   1.736       .  S
Cr769      O1166   1.736       .  S
O771       Cr789   1.930       .  S
O771        C779   1.281       .  A
O772       Cr789   1.941       .  S
O772        C773   1.235       .  A
C773       O1170   1.248       .  A
O775       Cr790   2.048       .  S
O775        C776   1.276       .  A
C776        O777   1.259       .  A
O777       Cr791   1.970       .  S
O778       Cr791   2.078       .  S
O778        C779   1.303       .  A
O780       Cr789   1.942       .  S
O780        C788   1.235       .  A
O781       Cr789   1.930       .  S
O781       C1178   1.281       .  A
C782        O783   1.303       .  A
O784       Cr790   1.970       .  S
O784        C785   1.259       .  A
C785        O786   1.276       .  A
C785       C1150   1.485       .  S
O786       Cr791   2.048       .  S
O787       Cr791   2.015       .  S
O787        C788   1.248       .  A
Cr789       O792   1.734       .  S
Cr790      O1170   2.016       .  S
Cr790      O1179   2.078       .  S
Cr790       O792   1.736       .  S
Cr791       O792   1.736       .  S
O793       Cr811   1.930       .  S
O793        C801   1.281       .  A
O794       Cr811   1.941       .  S
O794        C795   1.235       .  A
C795        O796   1.248       .  A
C795        C883   1.454       .  S
O796       Cr812   2.016       .  S
O797       Cr812   2.048       .  S
O797        C798   1.276       .  A
C798        O799   1.259       .  A
C798        C842   1.485   1_455  S
O799       Cr813   1.970       .  S
O800       Cr813   2.078       .  S
O800        C801   1.303       .  A
C801        C889   1.454       .  S
O802       Cr811   1.942       .  S
O802        C810   1.235       .  A
O803       Cr811   1.930       .  S
O803        C804   1.281       .  A
C804        O805   1.303       .  A
C804       C1109   1.454       .  S
O805       Cr812   2.078       .  S
O806       Cr812   1.970       .  S
O806        C807   1.259       .  A
C807        O808   1.276       .  A
C807        C820   1.485       .  S
O808       Cr813   2.048       .  S
O809       Cr813   2.015       .  S
O809        C810   1.248       .  A
C810       C1103   1.454       .  S
Cr811       O814   1.734       .  S
Cr812       O814   1.736       .  S
Cr813       O814   1.736       .  S
O815       Cr833   1.930   1_455  S
O815        C823   1.280       .  A
O816       Cr833   1.941   1_455  S
O816        C817   1.234       .  A
C817       C1096   1.454   1_556  S
O819       Cr834   2.049       .  S
O819        C820   1.276       .  A
C820        O821   1.258       .  A
O821       Cr835   1.970   1_455  S
O822       Cr835   2.078   1_455  S
O822        C823   1.303       .  A
C823       C1090   1.454       .  S
O824       Cr833   1.941       .  S
O824        C832   1.234       .  A
O825       Cr833   1.930       .  S
C826        O827   1.303       .  A
C826       C1002   1.454       .  S
O828       Cr834   1.970   1_655  S
O828        C829   1.259       .  A
C829        O830   1.276       .  A
O830       Cr835   2.048       .  S
O831       Cr835   2.015       .  S
O831        C832   1.248       .  A
C832       C1008   1.454       .  S
Cr833       O836   1.734       .  S
Cr834       O836   1.736   1_455  S
Cr835       O836   1.736       .  S
O837       Cr855   1.930       .  S
O837        C845   1.280       .  A
O838        C839   1.235       .  A
C839        O840   1.248       .  A
C839        C861   1.454       .  S
O840       Cr856   2.016       .  S
O841       Cr856   2.049   1_554  S
C842        O843   1.258       .  A
O843       Cr857   1.970       .  S
O844       Cr857   2.078       .  S
O844        C845   1.303       .  A
C845        C867   1.454       .  S
O846       Cr855   1.941       .  S
O846        C854   1.234       .  A
O847        C848   1.280       .  A
C848        O849   1.303       .  A
C848       C1046   1.454       .  S
O849       Cr856   2.078       .  S
O850       Cr856   1.970       .  S
C851        O852   1.276       .  A
O852       Cr857   2.048       .  S
O853       Cr857   2.015       .  S
O853        C854   1.248       .  A
C854       C1052   1.454       .  S
Cr855       O858   1.734       .  S
Cr857       O858   1.736       .  S
O859       Cr877   1.941       .  S
O859        C867   1.235       .  A
O860       Cr877   1.930       .  S
O860        C861   1.281       .  A
C861        O862   1.303       .  A
O862       Cr878   2.078       .  S
O863       Cr878   1.970       .  S
O863        C864   1.259       .  A
C864        O865   1.276       .  A
C864        C886   1.485   1_655  S
O865       Cr879   2.048       .  S
O866       Cr879   2.016       .  S
O866        C867   1.248       .  A
O868       Cr877   1.930       .  S
O868        C876   1.281       .  A
O869       Cr877   1.942       .  S
O869        C870   1.235       .  A
C870        O871   1.248       .  A
C870       C1153   1.454       .  S
O871       Cr878   2.015       .  S
O872       Cr878   2.048       .  S
O872        C873   1.276       .  A
C873        O874   1.259       .  A
C873        C908   1.485       .  S
O874       Cr879   1.971       .  S
O875       Cr879   2.078       .  S
O875        C876   1.303       .  A
C876       C1147   1.454       .  S
Cr877       O880   1.734       .  S
Cr878       O880   1.736       .  S
Cr879       O880   1.736       .  S
O881        C889   1.234       .  A
O882       Cr899   1.930       .  S
O882        C883   1.280       .  A
C883        O884   1.303       .  A
O884       Cr900   2.078       .  S
O885       Cr900   1.970       .  S
O885        C886   1.258       .  A
O887       Cr901   2.049       .  S
O888       Cr901   2.016       .  S
O888        C889   1.248       .  A
O890        C898   1.280       .  A
O891       Cr899   1.941       .  S
O891        C892   1.234       .  A
C892        O893   1.248       .  A
C892        C936   1.454       .  S
O893       Cr900   2.015       .  S
O894       Cr900   2.048       .  S
O894        C895   1.276   1_556  A
O896       Cr901   1.970       .  S
O897       Cr901   2.078       .  S
O897        C898   1.303       .  A
C898        C942   1.454       .  S
Cr899       O902   1.734       .  S
Cr900       O902   1.736       .  S
O903       Cr921   1.941       .  S
O903        C911   1.234       .  A
O904       Cr921   1.930       .  S
O904        C905   1.280       .  A
C905        O906   1.303       .  A
C905       C1184   1.454       .  S
O906       Cr922   2.078   1_655  S
O907       Cr922   1.970   1_655  S
O907        C908   1.258       .  A
C908        O909   1.276       .  A
O909       Cr923   2.049       .  S
C911       C1178   1.454       .  S
O912       Cr921   1.930   1_455  S
O913       Cr921   1.941   1_455  S
O913        C914   1.234       .  A
C914        O915   1.248       .  A
C914        C958   1.454       .  S
O915       Cr922   2.015       .  S
O916       Cr922   2.048       .  S
O916        C917   1.276       .  A
C917        O918   1.259       .  A
O918       Cr923   1.970   1_455  S
O919        C920   1.303       .  A
C920        C964   1.454   1_554  S
Cr921       O924   1.734       .  S
Cr922       O924   1.736   1_455  S
Cr923       O924   1.736       .  S
O925       Cr943   1.930       .  S
O925        C933   1.280       .  A
O926       Cr943   1.941       .  S
O926        C927   1.234       .  A
C927        O928   1.248       .  A
C927       C1015   1.454       .  S
O928       Cr944   2.016       .  S
O929       Cr944   2.049       .  S
O929        C930   1.276       .  A
C930        O931   1.258       .  A
C930        C974   1.485   1_565  S
O931       Cr945   1.970       .  S
O932       Cr945   2.078       .  S
O932        C933   1.303       .  A
C933       C1021   1.454       .  S
O934       Cr943   1.941       .  S
O934        C942   1.234       .  A
O935       Cr943   1.930       .  S
O935        C936   1.280       .  A
C936        O937   1.303       .  A
O937       Cr944   2.078       .  S
O938       Cr944   1.970       .  S
O938        C939   1.259       .  A
C939        O940   1.276       .  A
C939        C961   1.485       .  S
O940       Cr945   2.048       .  S
O941       Cr945   2.015       .  S
O941        C942   1.248       .  A
Cr943       O946   1.734       .  S
Cr944       O946   1.736       .  S
Cr945       O946   1.736       .  S
O947       Cr965   1.930   1_545  S
O948       Cr965   1.941   1_545  S
O948        C949   1.235       .  A
C949        O950   1.248       .  A
C949       C1081   1.454       .  S
O950       Cr966   2.016       .  S
O951       Cr966   2.049       .  S
O951        C952   1.276       .  A
C952        O953   1.258       .  A
O953       Cr967   1.970   1_545  S
O954        C955   1.303       .  A
C955       C1087   1.454       .  S
O956       Cr965   1.941       .  S
O956        C964   1.234       .  A
O957       Cr965   1.930       .  S
O957        C958   1.280       .  A
C958        O959   1.303       .  A
O959       Cr966   2.078   1_565  S
O960       Cr966   1.970   1_565  S
O960        C961   1.259       .  A
C961        O962   1.276       .  A
O962       Cr967   2.048       .  S
Cr965       O968   1.734       .  S
Cr966       O968   1.736   1_545  S
Cr967       O968   1.736       .  S
O969       Cr987   1.930       .  S
O969        C977   1.281       .  A
O970        C971   1.235       .  A
C971        O972   1.248       .  A
C971       C1037   1.454       .  S
O972       Cr988   2.015       .  S
O973       Cr988   2.048   1_554  S
C974        O975   1.259       .  A
O975       Cr989   1.971       .  S
O976       Cr989   2.078       .  S
O976        C977   1.303       .  A
C977       C1043   1.454       .  S
O978       Cr987   1.941       .  S
O978        C986   1.235       .  A
O979        C980   1.281       .  A
C980        O981   1.303       .  A
C980       C1065   1.454       .  S
O981       Cr988   2.078       .  S
O982       Cr988   1.970       .  S
C983        O984   1.276       .  A
O984       Cr989   2.048       .  S
O985       Cr989   2.016       .  S
O985        C986   1.248       .  A
C986       C1059   1.454       .  S
Cr987       O990   1.734       .  S
Cr989       O990   1.736       .  S
O991      Cr1009   1.941       .  S
O991        C999   1.235       .  A
O992      Cr1009   1.930       .  S
C993        O994   1.303       .  A
C993       C1169   1.454   1_554  S
O995      Cr1010   1.970   1_565  S
O995        C996   1.258       .  A
C996        O997   1.276       .  A
O997      Cr1011   2.049       .  S
O998      Cr1011   2.016       .  S
O998        C999   1.248       .  A
C999       C1175   1.454       .  S
O1000     Cr1009   1.930   1_545  S
O1000      C1008   1.280       .  A
O1001     Cr1009   1.941   1_545  S
O1001      C1002   1.234       .  A
O1004     Cr1010   2.048       .  S
O1004      C1005   1.276       .  A
C1005      O1006   1.259       .  A
C1005      C1049   1.485       .  S
O1006     Cr1011   1.970   1_545  S
O1007     Cr1011   2.078   1_545  S
O1007      C1008   1.303       .  A
Cr1009     O1012   1.734       .  S
Cr1010     O1012   1.736   1_545  S
Cr1011     O1012   1.736       .  S
O1013      C1021   1.235       .  A
O1014     Cr1031   1.930       .  S
O1014      C1015   1.281       .  A
C1015      O1016   1.303       .  A
O1016     Cr1032   2.078       .  S
O1017     Cr1032   1.970       .  S
O1017      C1018   1.259       .  A
C1018      C1040   1.485   1_565  S
O1019     Cr1033   2.048       .  S
O1020     Cr1033   2.015       .  S
O1020      C1021   1.248       .  A
O1022      C1030   1.281       .  A
O1023     Cr1031   1.941       .  S
O1023      C1024   1.235       .  A
C1024      O1025   1.248       .  A
C1024      C1131   1.454       .  S
O1025     Cr1032   2.016       .  S
O1026     Cr1032   2.048       .  S
O1026      C1027   1.276   1_556  A
O1028     Cr1033   1.970       .  S
O1029     Cr1033   2.078       .  S
O1029      C1030   1.303       .  A
C1030      C1125   1.454       .  S
Cr1031     O1034   1.734       .  S
Cr1032     O1034   1.736       .  S
O1035     Cr1053   1.941       .  S
O1035      C1043   1.234       .  A
O1036     Cr1053   1.930       .  S
O1036      C1037   1.280       .  A
C1037      O1038   1.303       .  A
O1038     Cr1054   2.078       .  S
O1039     Cr1054   1.970       .  S
O1039      C1040   1.258       .  A
C1040      O1041   1.276       .  A
O1041     Cr1055   2.049       .  S
O1042     Cr1055   2.016       .  S
O1042      C1043   1.248       .  A
O1044     Cr1053   1.930       .  S
O1044      C1052   1.280       .  A
O1045     Cr1053   1.941       .  S
O1045      C1046   1.234       .  A
C1046      O1047   1.248       .  A
O1047     Cr1054   2.015       .  S
O1048     Cr1054   2.048       .  S
O1048      C1049   1.276       .  A
C1049      O1050   1.259       .  A
O1050     Cr1055   1.970       .  S
O1051     Cr1055   2.078       .  S
O1051      C1052   1.303       .  A
Cr1053     O1056   1.734       .  S
Cr1054     O1056   1.736       .  S
Cr1055     O1056   1.736       .  S
O1057     Cr1075   1.941       .  S
O1057      C1065   1.235       .  A
O1058     Cr1075   1.930       .  S
O1058      C1059   1.280       .  A
C1059      O1060   1.303       .  A
O1060     Cr1076   2.078       .  S
O1061     Cr1076   1.970       .  S
O1061      C1062   1.258       .  A
C1062      O1063   1.276       .  A
C1062      C1084   1.485       .  S
O1063     Cr1077   2.049       .  S
O1064     Cr1077   2.016       .  S
O1064      C1065   1.248       .  A
O1066     Cr1075   1.930       .  S
O1066      C1074   1.280       .  A
O1067     Cr1075   1.941       .  S
O1067      C1068   1.234       .  A
C1068      O1069   1.248       .  A
C1068      C1156   1.454       .  S
O1069     Cr1076   2.015       .  S
O1070     Cr1076   2.048       .  S
O1070      C1071   1.276       .  A
C1071      O1072   1.259       .  A
C1071      C1115   1.485       .  S
O1072     Cr1077   1.970       .  S
O1073     Cr1077   2.078       .  S
O1073      C1074   1.303       .  A
C1074      C1162   1.454       .  S
Cr1075     O1078   1.734       .  S
Cr1076     O1078   1.736       .  S
Cr1077     O1078   1.736       .  S
O1079     Cr1097   1.941       .  S
O1079      C1087   1.235       .  A
O1080     Cr1097   1.930       .  S
O1080      C1081   1.281       .  A
C1081      O1082   1.303       .  A
O1082     Cr1098   2.078       .  S
O1083     Cr1098   1.970       .  S
O1083      C1084   1.259       .  A
C1084      O1085   1.276       .  A
O1085     Cr1099   2.048       .  S
O1088     Cr1097   1.930       .  S
O1089     Cr1097   1.942       .  S
O1089      C1090   1.235       .  A
C1090      O1091   1.248       .  A
O1091     Cr1098   2.015       .  S
O1092     Cr1098   2.048       .  S
O1092      C1093   1.276       .  A
C1093      O1094   1.259       .  A
O1094     Cr1099   1.970       .  S
O1095      C1096   1.303       .  A
Cr1097     O1100   1.734       .  S
Cr1098     O1100   1.736       .  S
Cr1099     O1100   1.736       .  S
O1101     Cr1119   1.941       .  S
O1101      C1109   1.234       .  A
O1102      C1103   1.280       .  A
C1103      O1104   1.303       .  A
O1104     Cr1120   2.078       .  S
O1105     Cr1120   1.970       .  S
C1106      O1107   1.276   1_554  A
O1107     Cr1121   2.049       .  S
O1108     Cr1121   2.016       .  S
O1108      C1109   1.248       .  A
O1110     Cr1119   1.930       .  S
O1110      C1118   1.280       .  A
O1111      C1112   1.234       .  A
C1112      O1113   1.248       .  A
C1112      C1134   1.454       .  S
O1113     Cr1120   2.015       .  S
O1114     Cr1120   2.048       .  S
C1115      O1116   1.259       .  A
O1116     Cr1121   1.970       .  S
O1117     Cr1121   2.078       .  S
O1117      C1118   1.303       .  A
C1118      C1140   1.454       .  S
Cr1119     O1122   1.734       .  S
Cr1121     O1122   1.736       .  S
O1123     Cr1141   1.930       .  S
O1123      C1131   1.280       .  A
O1124     Cr1141   1.941       .  S
O1124      C1125   1.234       .  A
C1125      O1126   1.248       .  A
O1126     Cr1142   2.016       .  S
O1127     Cr1142   2.049       .  S
O1127      C1128   1.276       .  A
C1128      O1129   1.258       .  A
C1128      C1172   1.485       .  S
O1129     Cr1143   1.970       .  S
O1130     Cr1143   2.078       .  S
O1130      C1131   1.303       .  A
O1132     Cr1141   1.941       .  S
O1132      C1140   1.234       .  A
O1133     Cr1141   1.930       .  S
O1133      C1134   1.280       .  A
C1134      O1135   1.303       .  A
O1135     Cr1142   2.078       .  S
O1136     Cr1142   1.970       .  S
O1136      C1137   1.259       .  A
C1137      O1138   1.276       .  A
C1137      C1159   1.485       .  S
O1138     Cr1143   2.048       .  S
O1139     Cr1143   2.015       .  S
O1139      C1140   1.248       .  A
Cr1141     O1144   1.734       .  S
Cr1142     O1144   1.736       .  S
Cr1143     O1144   1.736       .  S
O1145      C1153   1.280       .  A
O1146     Cr1163   1.941       .  S
O1146      C1147   1.234       .  A
C1147      O1148   1.248       .  A
O1148     Cr1164   2.016       .  S
O1149     Cr1164   2.049       .  S
O1149      C1150   1.276       .  A
O1151     Cr1165   1.970       .  S
O1152     Cr1165   2.078       .  S
O1152      C1153   1.303       .  A
O1154      C1162   1.234       .  A
O1155     Cr1163   1.930       .  S
O1155      C1156   1.280       .  A
C1156      O1157   1.303       .  A
O1157     Cr1164   2.078       .  S
O1158     Cr1164   1.970       .  S
O1158      C1159   1.259       .  A
O1160     Cr1165   2.048   1_554  S
O1161     Cr1165   2.015       .  S
O1161      C1162   1.248       .  A
Cr1163     O1166   1.734       .  S
Cr1164     O1166   1.736       .  S
O1167     Cr1185   1.930       .  S
O1167      C1175   1.281       .  A
O1168     Cr1185   1.941       .  S
O1168      C1169   1.235       .  A
O1171     Cr1186   2.048       .  S
O1171      C1172   1.276       .  A
C1172      O1173   1.259       .  A
O1173     Cr1187   1.970       .  S
O1174     Cr1187   2.078       .  S
O1174      C1175   1.303       .  A
O1176     Cr1185   1.941       .  S
O1176      C1184   1.235       .  A
O1177     Cr1185   1.930       .  S
C1178      O1179   1.303       .  A
O1180     Cr1186   1.970       .  S
O1180      C1181   1.259       .  A
C1181      O1182   1.276       .  A
O1182     Cr1187   2.048       .  S
O1183     Cr1187   2.015       .  S
O1183      C1184   1.248       .  A
Cr1185     O1188   1.734       .  S
Cr1186     O1188   1.736       .  S
Cr1187     O1188   1.736       .  S
