geometry optimzed in LAMMPS
_audit_creation_date              2020-11-30 
_audit_creation_method            'lammps2cif' 
_symmetry_space_group_name_H-M    'P1' 
_symmetry_Int_Tables_number       1 
_symmetry_cell_setting            triclinic 
loop_ 
_symmetry_equiv_pos_as_xyz 
  x,y,z 
_cell_length_a                    55.2008496182409 
_cell_length_b                    57.26087393381567 
_cell_length_c                    55.93149137794206 
_cell_angle_alpha                 89.29149352214006 
_cell_angle_beta                  91.60689291003526 
_cell_angle_gamma                 89.34203464057886 
loop_ 
_atom_site_label 
_atom_site_type_symbol 
_atom_site_fract_x 
_atom_site_fract_y 
_atom_site_fract_z 
_atom_site_charge 
O1          O  0.81035925  0.82087479  0.73333542    -0.81070
O2          O  0.76974872  0.78482770  0.82679995    -0.65760
O3          O  0.80919300  0.81315945  0.78028350    -1.12360
C4          C  0.83995193  0.74310447  0.76397631     1.05820
O5          O  0.77437510  0.74649867  0.82035601    -0.78970
O6          O  0.82021216  0.76357517  0.82091408    -0.66550
Ni7        Ni  0.79718914  0.83655729  0.75960152     1.34870
C8          C  0.83781732  0.77624051  0.81455401     0.84550
O9          O  0.78723130  0.82753493  0.81908114    -0.79510
O10         O  0.78548902  0.85299017  0.78753857    -0.89780
C11         C  0.76696974  0.76355512  0.83269009     0.84130
O12         O  0.77016050  0.81764494  0.75399209    -0.67990
O13         O  0.83191907  0.73693464  0.78408131    -0.87270
C14         C  0.75366425  0.82070033  0.76826739     0.84960
C15         C  0.78508455  0.84817405  0.81014905     1.06520
H16         H  0.77804180  0.76881327  0.77261781     0.38330
O17         O  0.79207777  0.77152273  0.78287580    -1.09930
O18         O  0.84156885  0.78167676  0.79252333    -0.66580
Ni19       Ni  0.81803393  0.78524196  0.76528214     1.26350
O20         O  0.75629219  0.81049094  0.78843967    -0.66810
O21         O  0.82759550  0.75698077  0.75084101    -0.79100
C22         C  0.83305549  0.81858384  0.73497821     0.84340
O23         O  0.84174119  0.80138925  0.74715131    -0.66280
Ni24       Ni  0.80210144  0.74379468  0.80050957     1.27450
Ni25       Ni  0.78795525  0.79932596  0.80226332     1.26060
H26         H  0.82292499  0.81958075  0.78894691     0.38880
O27         O  0.78944297  0.91704829  0.98342081    -0.81070
O28         O  0.86734367  0.97496712  0.92473704    -0.65760
O29         O  0.80953993  0.95272161  0.95470557    -1.12360
C30         C  0.79860988  0.91775065  0.88026271     1.05820
O31         O  0.84146802  0.98834318  0.89876150    -0.78970
O32         O  0.79686173  0.97824974  0.90161509    -0.66550
Ni33       Ni  0.81517379  0.93969001  0.98659774     1.34870
C34         C  0.77729835  0.96757604  0.90135905     0.84550
O35         O  0.84590959  0.98463421  0.96629141    -0.79510
O36         O  0.84378263  0.95845114  0.99508421    -0.89780
C37         C  0.86292568  0.98218817  0.90365779     0.84130
O38         O  0.83584995  0.91678349  0.97453182    -0.67990
O39         O  0.80413447  0.93834097  0.87298536    -0.87270
C40         C  0.85609751  0.92093757  0.96552710     0.84960
C41         C  0.85433487  0.97569602  0.98540284     1.06520
H42         H  0.84253330  0.93441678  0.91124665     0.38330
O43         O  0.82991649  0.94573840  0.91434244    -1.09930
O44         O  0.77618410  0.94875564  0.91359022    -0.66580
Ni45       Ni  0.80349964  0.93081361  0.92889698     1.26350
O46         O  0.85989439  0.93958462  0.95344325    -0.66810
O47         O  0.80016768  0.91101651  0.90217348    -0.79100
C48         C  0.77917727  0.90600536  0.96627625     0.84340
O49         O  0.77944968  0.91303083  0.94463903    -0.66280
Ni50       Ni  0.82283877  0.96372248  0.88630841     1.27450
Ni51       Ni  0.83867153  0.96469992  0.94056356     1.26060
H52         H  0.79708742  0.96471402  0.95480888     0.38880
O53         O  0.91904136  0.87845264  0.75853028    -0.81070
O54         O  0.98557033  0.93732412  0.82333667    -0.65760
O55         O  0.93258452  0.90240451  0.79912068    -1.12360
C56         C  0.90194707  0.96634814  0.76176552     1.05820
O57         O  0.97603666  0.97390789  0.81275717    -0.78970
O58         O  0.93077800  0.96291042  0.82047186    -0.66550
Ni59       Ni  0.93841608  0.87276806  0.78658079     1.34870
C60         C  0.91115254  0.95178790  0.82056445     0.84550
O61         O  0.96474765  0.89813883  0.83541286    -0.79510
O62         O  0.95858030  0.86488810  0.81498343    -0.89780
C63         C  0.98539385  0.95897243  0.82761109     0.84130
O64         O  0.96222338  0.88613402  0.76785708    -0.67990
O65         O  0.91464495  0.97787639  0.77681063    -0.87270
C66         C  0.98270204  0.88657724  0.77730446     0.84960
C67         C  0.96485812  0.87602417  0.83398211     1.06520
H68         H  0.96271790  0.93955114  0.77122143     0.38330
O69         O  0.95151884  0.94082770  0.78412373    -1.09930
O70         O  0.90371342  0.93902945  0.80308512    -0.66580
Ni71       Ni  0.92159344  0.92479327  0.77658528     1.26350
O72         O  0.98600473  0.90113463  0.79407555    -0.66810
O73         O  0.91022410  0.94747314  0.75391232    -0.79100
C74         C  0.89819282  0.88770918  0.75722684     0.84340
O75         O  0.89382177  0.90654385  0.76821184    -0.66280
Ni76       Ni  0.94650944  0.97313619  0.79307537     1.27450
Ni77       Ni  0.96005067  0.91936177  0.81011890     1.26060
H78         H  0.92126162  0.90074291  0.81188662     0.38880
O79         O  0.99571293  0.75636264  0.92437513    -0.81070
O80         O  0.94604545  0.84541051  0.97043457    -0.65760
O81         O  0.96690024  0.78489831  0.95131139    -1.12360
C82         C  0.89942821  0.79601152  0.89667333     1.05820
O83         O  0.91154784  0.82858929  0.97531925    -0.78970
O84         O  0.89662935  0.78885548  0.95860064    -0.66550
Ni85       Ni  0.00109339  0.78286545  0.94485009     1.34870
C86         C  0.90500513  0.76875771  0.95458095     0.84550
O87         O  0.98067131  0.81518317  0.98628556    -0.79510
O88         O  0.01155003  0.81009865  0.96350539    -0.89780
C89         C  0.92410990  0.84684124  0.97603408     0.84130
O90         O  0.99516577  0.80255404  0.91804390    -0.67990
O91         O  0.89011320  0.80750173  0.91373157    -0.87270
C92         C  0.98595472  0.82288015  0.91907863     0.84960
C93         C  0.00117652  0.82146840  0.97985209     1.06520
H94         H  0.93643892  0.82565243  0.92443538     0.38330
O95         O  0.93353168  0.81367083  0.93628811    -1.09930
O96         O  0.92275381  0.76483053  0.94112375    -0.66580
Ni97       Ni  0.94428363  0.78519231  0.92400144     1.26350
O98         O  0.97714103  0.83087089  0.93829715    -0.66810
O99         O  0.92089706  0.78714378  0.89773493    -0.79100
C100        C  0.97893881  0.75064804  0.90935985     0.84340
O101        O  0.95720418  0.75796632  0.91027894    -0.66280
Ni102      Ni  0.90119874  0.81824248  0.94454941     1.27450
Ni103      Ni  0.95701602  0.81505841  0.96139372     1.26060
H104        H  0.96270592  0.77321914  0.96305711     0.38880
O105        O  0.28401971  0.38347704  0.90179794    -0.81070
O106        O  0.34567655  0.46194989  0.95399862    -0.65760
O107        O  0.32125299  0.40553004  0.92771026    -1.12360
C108        C  0.28473314  0.39012619  0.99579860     1.05820
O109        O  0.34312159  0.45359507  0.99307058    -0.78970
O110        O  0.34703149  0.40784356  0.98697003    -0.66550
Ni111      Ni  0.30865359  0.40611043  0.89582572     1.34870
C112        C  0.34393237  0.38845356  0.97663722     0.84550
O113        O  0.35673580  0.43651849  0.91675742    -0.79510
O114        O  0.33279588  0.42838094  0.88519761    -0.89780
C115        C  0.35229157  0.46469768  0.97568247     0.84130
O116        O  0.28632225  0.42901941  0.90522857    -0.67990
O117        O  0.30256735  0.40038152  0.00588829    -0.87270
C118        C  0.29301807  0.44978738  0.90707238     0.84960
C119        C  0.35238737  0.43654956  0.89438785     1.06520
H120        H  0.29658621  0.44221449  0.96279508     0.38330
O121        O  0.30921687  0.43041644  0.96424980    -1.09930
O122        O  0.32323287  0.38244897  0.96834670    -0.66580
Ni123      Ni  0.29824159  0.40145883  0.95203818     1.26350
O124        O  0.31147451  0.45483074  0.92029774    -0.66810
O125        O  0.27579465  0.39841866  0.97662543    -0.79100
C126        C  0.27851226  0.37036418  0.91926204     0.84340
O127        O  0.28703974  0.37288273  0.94008776    -0.66280
Ni128      Ni  0.32153279  0.42770980  0.99701547     1.27450
Ni129      Ni  0.33294886  0.43432311  0.94028831     1.26060
H130        H  0.33404758  0.39387701  0.92863350     0.38880
O131        O  0.41395790  0.49919645  0.76593807    -0.81070
O132        O  0.48529297  0.44424607  0.83937417    -0.65760
O133        O  0.45091437  0.47097911  0.78536661    -1.12360
C134        C  0.40770151  0.40115935  0.79390530     1.05820
O135        O  0.49237867  0.41432904  0.81657790    -0.78970
O136        O  0.47084730  0.41086708  0.77539153    -0.66550
Ni137      Ni  0.43796112  0.50196219  0.79146814     1.34870
C138        C  0.45604849  0.41309379  0.75816075     0.84550
O139        O  0.48889861  0.48446512  0.81611655    -0.79510
O140        O  0.45934954  0.50968176  0.81872086    -0.89780
C141        C  0.49532500  0.42459864  0.83639725     0.84130
O142        O  0.41612359  0.48779864  0.81287987    -0.67990
O143        O  0.42893132  0.39160662  0.79670300    -0.87270
C144        C  0.42266248  0.47588835  0.83135315     0.84960
C145        C  0.47937573  0.50119095  0.82689138     1.06520
H146        H  0.43804471  0.43138703  0.82460613     0.38330
O147        O  0.44729832  0.43303457  0.81028926    -1.09930
O148        O  0.43836451  0.42772456  0.75910835    -0.66580
Ni149      Ni  0.42682601  0.44654944  0.78629579     1.26350
O150        O  0.44484518  0.47000701  0.83555830    -0.66810
O151        O  0.40413363  0.42297388  0.79076372    -0.79100
C152        C  0.39941512  0.48287053  0.76022827     0.84340
O153        O  0.40424719  0.46142457  0.76444030    -0.66280
Ni154      Ni  0.46095709  0.40349834  0.80639055     1.27450
Ni155      Ni  0.46842973  0.45836537  0.81290933     1.26060
H156        H  0.46038849  0.47042651  0.77111368     0.38880
O157        O  0.30535863  0.25603050  0.75842728    -0.81070
O158        O  0.25725085  0.29198207  0.85359330    -0.65760
O159        O  0.27514200  0.27877961  0.78998761    -1.12360
C160        C  0.32141306  0.34619707  0.80176716     1.05820
O161        O  0.24619781  0.32712046  0.84125748    -0.78970
O162        O  0.25485123  0.34025204  0.79753368    -0.66550
Ni163      Ni  0.28826483  0.24721541  0.78708447     1.34870
C164        C  0.26373902  0.34051596  0.77713686     0.84550
O165        O  0.24582257  0.25860926  0.82275885    -0.79510
O166        O  0.27462153  0.23360502  0.81652063    -0.89780
C167        C  0.24826678  0.31180795  0.85787028     0.84130
O168        O  0.31569877  0.25656509  0.80529681    -0.67990
O169        O  0.30220775  0.35455015  0.81133953    -0.87270
C170        C  0.31483223  0.26407367  0.82649854     0.84960
C171        C  0.25742360  0.24069045  0.82946725     1.06520
H172        H  0.29985613  0.30896505  0.83250253     0.38330
O173        O  0.28683817  0.31048198  0.82065930    -1.09930
O174        O  0.28054720  0.32618148  0.77164206    -0.66580
Ni175      Ni  0.29929804  0.30284031  0.79077534     1.26350
O176        O  0.29470716  0.26903465  0.83621739    -0.66810
O177        O  0.32326818  0.32541536  0.79433304    -0.79100
C178        C  0.31729392  0.27426207  0.75272368     0.84340
O179        O  0.31361692  0.29406189  0.76191347    -0.66280
Ni180      Ni  0.27392482  0.34019532  0.82597157     1.27450
Ni181      Ni  0.26596642  0.28490583  0.82198567     1.26060
H182        H  0.26211866  0.28217797  0.77852305     0.38880
O183        O  0.47588689  0.33696440  0.87446451    -0.81070
O184        O  0.42207755  0.26046020  0.93493326    -0.65760
O185        O  0.44084227  0.31651507  0.90390795    -1.12360
C186        C  0.48869322  0.33366654  0.96663071     1.05820
O187        O  0.43827009  0.26404715  0.97188647    -0.78970
O188        O  0.42745487  0.30949891  0.96764346    -0.66550
Ni189      Ni  0.44885959  0.31607071  0.87132569     1.34870
C190        C  0.42640945  0.32965789  0.95803891     0.84550
O191        O  0.40407275  0.28624791  0.89907541    -0.79510
O192        O  0.42119943  0.29585695  0.86436694    -0.89780
C193        C  0.42296630  0.25524928  0.95705972     0.84130
O194        O  0.47110052  0.29219579  0.88012684    -0.67990
O195        O  0.47380699  0.32212064  0.97897742    -0.87270
C196        C  0.46298408  0.27197997  0.87999507     0.84960
C197        C  0.40346859  0.28798732  0.87637695     1.06520
H198        H  0.47365328  0.28055335  0.93434017     0.38330
O199        O  0.46105988  0.29156826  0.93835482    -1.09930
O200        O  0.44323419  0.33748456  0.94491397    -0.66580
Ni201      Ni  0.46711860  0.32162145  0.92509815     1.26350
O202        O  0.44774401  0.26640777  0.89572388    -0.66810
O203        O  0.49374987  0.32665514  0.94623369    -0.79100
C204        C  0.48120136  0.35201259  0.89019808     0.84340
O205        O  0.47332863  0.35071453  0.91101229    -0.66280
Ni206      Ni  0.45678979  0.29249302  0.97265705     1.27450
Ni207      Ni  0.43227564  0.28766071  0.91866251     1.26060
H208        H  0.42799068  0.32790435  0.90572881     0.38880
O209        O  0.59745159  0.15517991  0.50939318    -0.81070
O210        O  0.55377403  0.22265388  0.58131411    -0.65760
O211        O  0.58419458  0.17034110  0.55273400    -1.12360
C212        C  0.51134622  0.14525969  0.52529448     1.05820
O213        O  0.51446019  0.21292049  0.57878318    -0.78970
O214        O  0.52694773  0.16823178  0.58581182    -0.66550
Ni215      Ni  0.61146042  0.17416939  0.53335614     1.34870
C216        C  0.53766783  0.14885514  0.58313536     0.84550
O217        O  0.59802342  0.20258848  0.58488232    -0.79510
O218        O  0.62646167  0.19334904  0.55788212    -0.89780
C219        C  0.53192200  0.22463419  0.58791161     0.84130
O220        O  0.59496328  0.19863267  0.51704230    -0.67990
O221        O  0.50329709  0.15477261  0.54409687    -0.87270
C222        C  0.59701241  0.21807984  0.52645920     0.84960
C223        C  0.61992960  0.20193490  0.57787344     1.06520
H224        H  0.54045165  0.20102564  0.53173839     0.38330
O225        O  0.54222656  0.19006662  0.54496495    -1.09930
O226        O  0.54647431  0.14298220  0.56306759    -0.66580
Ni227      Ni  0.55642918  0.16125492  0.53484432     1.26350
O228        O  0.58403618  0.22194036  0.54452238    -0.66810
O229        O  0.52936983  0.15376769  0.51554478    -0.79100
C230        C  0.59168580  0.13502635  0.51610367     0.84340
O231        O  0.57153321  0.13277901  0.52571220    -0.66280
Ni232      Ni  0.51140015  0.18478405  0.56002572     1.27450
Ni233      Ni  0.56977078  0.19765942  0.56564419     1.26060
H234        H  0.58815171  0.15919645  0.56540825     0.38880
O235        O  0.73052462  0.13027340  0.66865468    -0.81070
O236        O  0.65878889  0.19580558  0.72551994    -0.65760
O237        O  0.69321902  0.16234009  0.67814974    -1.12360
C238        C  0.74322753  0.22258678  0.66960328     1.05820
O239        O  0.67040847  0.23200273  0.71729826    -0.78970
O240        O  0.68109727  0.22662911  0.67166951    -0.66550
Ni241      Ni  0.69936671  0.13005521  0.68294820     1.34870
C242        C  0.68679860  0.21487731  0.65351961     0.84550
O243        O  0.64885412  0.16027474  0.69797860    -0.79510
O244        O  0.66782499  0.12567071  0.69711544    -0.89780
C245        C  0.65487778  0.21773297  0.72518765     0.84130
O246        O  0.71573700  0.13759251  0.71168591    -0.67990
O247        O  0.72827677  0.23597077  0.67990461    -0.87270
C248        C  0.70329766  0.14046079  0.72976479     0.84960
C249        C  0.64881384  0.13825422  0.70000638     1.06520
H250        H  0.71437936  0.19428431  0.71952648     0.38330
O251        O  0.70538688  0.19736948  0.70473331    -1.09930
O252        O  0.70385948  0.19981420  0.65393038    -0.66580
Ni253      Ni  0.72068216  0.18187290  0.67850038     1.26350
O254        O  0.68692561  0.15659689  0.72952276    -0.66810
O255        O  0.74736626  0.20234239  0.67803034    -0.79100
C256        C  0.74002552  0.14407845  0.65380235     0.84340
O257        O  0.73504195  0.16565868  0.65304461    -0.66280
Ni258      Ni  0.70033096  0.23092751  0.69990185     1.27450
Ni259      Ni  0.67668276  0.17845210  0.70271383     1.26060
H260        H  0.68392819  0.16406410  0.66331850     0.38880
O261        O  0.67340733  0.00942682  0.51019924    -0.81070
O262        O  0.73332387  0.08482252  0.56919014    -0.65760
O263        O  0.70595241  0.03144766  0.53934463    -1.12360
C264        C  0.66998846  0.02715310  0.61422918     1.05820
O265        O  0.74891972  0.06009474  0.59564973    -0.78970
O266        O  0.73096797  0.01772269  0.59256010    -0.66550
Ni267      Ni  0.69210937  0.03772621  0.50772252     1.34870
C268        C  0.71721622  0.00075046  0.59499312     0.84550
O269        O  0.73793831  0.06704990  0.52656798    -0.79510
O270        O  0.70759250  0.06840591  0.50105915    -0.89780
C271        C  0.74735081  0.08074800  0.58708383     0.84130
O272        O  0.66689117  0.05374517  0.52216747    -0.67990
O273        O  0.69179000  0.03161009  0.62148746    -0.87270
C274        C  0.67044713  0.07222463  0.53370837     0.84960
C275        C  0.72648010  0.07785920  0.51017074     1.06520
H276        H  0.69117085  0.06423268  0.58404529     0.38330
O277        O  0.70183791  0.05138826  0.58020998    -1.09930
O278        O  0.69902384  0.99977024  0.58046912    -0.66580
Ni279      Ni  0.68313953  0.02771651  0.56515970     1.26350
O280        O  0.69090915  0.07736971  0.54364653    -0.66810
O281        O  0.66297825  0.02674111  0.59212467    -0.79100
C282        C  0.65722211  0.00456989  0.52543212     0.84340
O283        O  0.66083259  0.00765810  0.54791112    -0.66280
Ni284      Ni  0.72064725  0.04505972  0.60781108     1.27450
Ni285      Ni  0.71970421  0.05873063  0.55346391     1.26060
H286        H  0.71765079  0.01876849  0.53924875     0.38880
O287        O  0.56660380  0.07546290  0.74691169    -0.81070
O288        O  0.52802057  0.01774835  0.66369805    -0.65760
O289        O  0.55784512  0.06389656  0.70187364    -1.12360
C290        C  0.48484389  0.09528928  0.71446566     1.05820
O291        O  0.48845792  0.02642132  0.66476617    -0.78970
O292        O  0.50629316  0.07004220  0.65924982    -0.66550
Ni293      Ni  0.58180140  0.05552543  0.72504719     1.34870
C294        C  0.51887464  0.08806184  0.66363175     0.84550
O295        O  0.57281078  0.03389800  0.66917833    -0.79510
O296        O  0.59815296  0.03639830  0.70163223    -0.89780
C297        C  0.50630850  0.01535499  0.65617145     0.84130
O298        O  0.56078105  0.03238872  0.73598838    -0.67990
O299        O  0.47884597  0.08618026  0.69463779    -0.87270
C300        C  0.56218507  0.01353010  0.72527590     0.84960
C301        C  0.59370967  0.03163288  0.67948861     1.06520
H302        H  0.51064943  0.03643000  0.71330558     0.38330
O303        O  0.51419915  0.04791089  0.70113130    -1.09930
O304        O  0.52493625  0.09385253  0.68513721    -0.66580
Ni305      Ni  0.52873092  0.07503278  0.71498010     1.26350
O306        O  0.55190642  0.01257390  0.70476604    -0.66810
O307        O  0.49956890  0.08493900  0.72840378    -0.79100
C308        C  0.56453330  0.09614418  0.73905857     0.84340
O309        O  0.54465407  0.10157242  0.72865369    -0.66280
Ni310      Ni  0.48583477  0.05548437  0.68146728     1.27450
Ni311      Ni  0.54310865  0.03966026  0.68414669     1.26060
H312        H  0.56456680  0.07525322  0.69105870     0.38880
O313        O  0.47741232  0.20159951  0.74912456    -0.81070
O314        O  0.46651310  0.30705615  0.74018002    -0.65760
O315        O  0.46855154  0.24248333  0.72449070    -1.12360
C316        C  0.55466788  0.25129997  0.72962955     1.05820
O317        O  0.49564888  0.31627173  0.71499877    -0.78970
O318        O  0.51715397  0.28195477  0.68835878    -0.66550
Ni319      Ni  0.44951106  0.22010835  0.74084466     1.34870
C320        C  0.51221752  0.26179295  0.68043422     0.84550
O321        O  0.43132019  0.27535065  0.73080199    -0.79510
O322        O  0.42065139  0.23753724  0.73327329    -0.89780
C323        C  0.47789443  0.32217104  0.72800230     0.84130
O324        O  0.45120815  0.23227306  0.77237727    -0.67990
O325        O  0.55028199  0.27303124  0.72530420    -0.87270
C326        C  0.45954184  0.25104429  0.78080770     0.84960
C327        C  0.41534253  0.25915616  0.73056184     1.06520
H328        H  0.50641958  0.27197216  0.75279800     0.38330
O329        O  0.50154654  0.27125901  0.73610408    -1.09930
O330        O  0.50617884  0.24470314  0.69367723    -0.66580
Ni331      Ni  0.50308111  0.23906120  0.72752959     1.26350
O332        O  0.46594557  0.26814296  0.76763752    -0.66810
O333        O  0.53779200  0.23636140  0.73143836    -0.79100
C334        C  0.48951986  0.19305774  0.73248231     0.84340
O335        O  0.50198536  0.20653676  0.71968517    -0.66280
Ni336      Ni  0.52168849  0.29318436  0.72035298     1.27450
Ni337      Ni  0.46664769  0.27423846  0.73340951     1.26060
H338        H  0.46382203  0.24169257  0.70775699     0.38880
O339        O  0.32592035  0.74499266  0.25039303    -0.81070
O340        O  0.28783907  0.78755161  0.34711414    -0.65760
O341        O  0.30162406  0.77241423  0.28263964    -1.12360
C342        C  0.35893072  0.83216599  0.29283736     1.05820
O343        O  0.28321151  0.82366038  0.33460052    -0.78970
O344        O  0.29233045  0.83442998  0.29121018    -0.66550
Ni345      Ni  0.30631518  0.73923250  0.27775540     1.34870
C346        C  0.29903134  0.83196416  0.27012122     0.84550
O347        O  0.26744103  0.75924500  0.31480081    -0.79510
O348        O  0.28811310  0.72811020  0.30524237    -0.89780
C349        C  0.28291291  0.80863996  0.35128656     0.84130
O350        O  0.33475816  0.74026149  0.29727824    -0.67990
O351        O  0.34114656  0.84209985  0.30311890    -0.87270
C352        C  0.33503111  0.74655678  0.31892206     0.84960
C353        C  0.27228871  0.73796740  0.31794918     1.06520
H354        H  0.33272645  0.79592763  0.32560164     0.38330
O355        O  0.32029795  0.80028886  0.31381816    -1.09930
O356        O  0.31455050  0.81645616  0.26462954    -0.66580
Ni357      Ni  0.33052840  0.79145570  0.28334136     1.26350
O358        O  0.31691120  0.75659248  0.32837615    -0.66810
O359        O  0.35857968  0.81089152  0.28609366    -0.79100
C360        C  0.34263739  0.75967475  0.24655236     0.84340
O361        O  0.34198818  0.78050478  0.25398682    -0.66280
Ni362      Ni  0.31222611  0.83179536  0.31887392     1.27450
Ni363      Ni  0.29402936  0.77960837  0.31481529     1.26060
H364        H  0.28936434  0.77872137  0.27162299     0.38880
O365        O  0.49384628  0.80024422  0.38721532    -0.81070
O366        O  0.42440015  0.73648294  0.44174302    -0.65760
O367        O  0.45088591  0.78718293  0.40774270    -1.12360
C368        C  0.48237359  0.81570325  0.47564064     1.05820
O369        O  0.43221749  0.74490113  0.47997892    -0.78970
O370        O  0.42360798  0.78869835  0.46653618    -0.66550
Ni371      Ni  0.46675744  0.78132002  0.37912604     1.34870
C372        C  0.42437876  0.80815493  0.45564570     0.84550
O373        O  0.41554537  0.75648916  0.39998777    -0.79510
O374        O  0.43952148  0.76200488  0.36850466    -0.89780
C375        C  0.41924938  0.73534274  0.46359528     0.84130
O376        O  0.48481517  0.75811568  0.39574859    -0.67990
O377        O  0.46606394  0.80403026  0.48605647    -0.87270
C378        C  0.47550709  0.73854175  0.39585638     0.84960
C379        C  0.41941828  0.75583468  0.37767960     1.06520
H380        H  0.47631041  0.75737839  0.44909054     0.38330
O381        O  0.46293809  0.76842501  0.44879482    -1.09930
O382        O  0.44318912  0.81484490  0.44440493    -0.66580
Ni383      Ni  0.47138630  0.79705667  0.43270202     1.26350
O384        O  0.45744583  0.73569648  0.40907691    -0.66810
O385        O  0.49229771  0.80715545  0.45776813    -0.79100
C386        C  0.49305322  0.82018473  0.39659299     0.84340
O387        O  0.48041490  0.82381915  0.41479748    -0.66280
Ni388      Ni  0.45090530  0.77340857  0.48048656     1.27450
Ni389      Ni  0.43878418  0.76089791  0.42447533     1.26060
H390        H  0.43795546  0.79839345  0.40446946     0.38880
O391        O  0.26786514  0.93761266  0.41669941    -0.81070
O392        O  0.32580734  0.86261745  0.48406809    -0.65760
O393        O  0.29580139  0.91763455  0.45498471    -1.12360
C394        C  0.37248799  0.92498473  0.42215660     1.05820
O395        O  0.35286550  0.88664664  0.49585117    -0.78970
O396        O  0.34945656  0.93004823  0.48319270    -0.66550
Ni397      Ni  0.26415763  0.91257239  0.43994347     1.34870
C398        C  0.34849586  0.94839638  0.47080024     0.84550
O399        O  0.28239061  0.88395503  0.48844196    -0.79510
O400        O  0.25511697  0.88543300  0.45930135    -0.89780
C401        C  0.34766891  0.86611802  0.49004573     0.84130
O402        O  0.27808902  0.89151087  0.41840415    -0.67990
O403        O  0.37930335  0.92092244  0.44396946    -0.87270
C404        C  0.28789993  0.87216780  0.42481563     0.84960
C405        C  0.26456990  0.87505698  0.47756954     1.06520
H406        H  0.34123007  0.88423793  0.44129650     0.38330
O407        O  0.33747181  0.89698558  0.45179879    -1.09930
O408        O  0.33675915  0.94838129  0.45091949    -0.66580
Ni409      Ni  0.32280934  0.92164303  0.43371992     1.26350
O410        O  0.29932277  0.86919485  0.44481819    -0.66810
O411        O  0.35053514  0.92328633  0.41448192    -0.79100
C412        C  0.28558351  0.94681243  0.40599524     0.84340
O413        O  0.30741568  0.94429875  0.41331814    -0.66280
Ni414      Ni  0.36553311  0.90397334  0.47039695     1.27450
Ni415      Ni  0.30999086  0.88999779  0.47021096     1.26060
H416        H  0.29500899  0.93025198  0.46625833     0.38880
O417        O  0.52319980  0.90678859  0.33073050    -0.81070
O418        O  0.43395612  0.95587275  0.28767120    -0.65760
O419        O  0.47668689  0.91286018  0.31945202    -1.12360
C420        C  0.49609487  0.88462324  0.24889337     1.05820
O421        O  0.44402766  0.95355802  0.24936737    -0.78970
O422        O  0.43842770  0.90832457  0.26486185    -0.66550
Ni423      Ni  0.49673457  0.92191346  0.34492215     1.34870
C424        C  0.44283032  0.88997553  0.27754015     0.84550
O425        O  0.43776223  0.93685473  0.33161549    -0.79510
O426        O  0.46827572  0.93544999  0.35974293    -0.89780
C427        C  0.43018862  0.96073588  0.26564752     0.84130
O428        O  0.50545168  0.94813543  0.32677624    -0.67990
O429        O  0.47683789  0.89451242  0.24082205    -0.87270
C430        C  0.49156960  0.96519489  0.32858843     0.84960
C431        C  0.44566059  0.93737024  0.35336699     1.06520
H432        H  0.48935364  0.94382137  0.27584323     0.38330
O433        O  0.47798540  0.93120995  0.27729078    -1.09930
O434        O  0.46438324  0.88438966  0.28540589    -0.66580
Ni435      Ni  0.49313734  0.90407339  0.29194569     1.26350
O436        O  0.47157096  0.96445525  0.31689148    -0.66810
O437        O  0.50911542  0.89503525  0.26402500    -0.79100
C438        C  0.51995669  0.88522002  0.32800902     0.84340
O439        O  0.50876104  0.87870397  0.30913962    -0.66280
Ni440      Ni  0.46186978  0.92468330  0.24724358     1.27450
Ni441      Ni  0.45664632  0.93571138  0.30407195     1.26060
H442        H  0.46683369  0.90018938  0.32509756     0.38880
O443        O  0.24814664  0.67362701  0.71657525    -0.81070
O444        O  0.18427062  0.72724567  0.63572157    -0.65760
O445        O  0.21845770  0.70535635  0.69272287    -1.12360
C446        C  0.14264223  0.67483264  0.70813548     1.05820
O447        O  0.15952100  0.74206271  0.66029434    -0.78970
O448        O  0.16976219  0.73423827  0.70517072    -0.66550
Ni449      Ni  0.24865672  0.68969980  0.68653928     1.34870
C450        C  0.17116509  0.72464217  0.72535105     0.84550
O451        O  0.22922627  0.73360535  0.65417767    -0.79510
O452        O  0.25399758  0.70350051  0.65547238    -0.89780
C453        C  0.16283001  0.73348432  0.63998585     0.84130
O454        O  0.23065933  0.66534446  0.67157956    -0.67990
O455        O  0.13661627  0.69631196  0.70422628    -0.87270
C456        C  0.21678220  0.66826091  0.65314839     0.84960
C457        C  0.24594220  0.72196169  0.64521335     1.06520
H458        H  0.16949741  0.68887466  0.66374910     0.38330
O459        O  0.17504270  0.70030337  0.67518454    -1.09930
O460        O  0.18153191  0.70479484  0.72726612    -0.66580
Ni461      Ni  0.19193424  0.68510244  0.70092933     1.26350
O462        O  0.20958015  0.68861832  0.64598241    -0.66810
O463        O  0.16424055  0.66686975  0.70636734    -0.79100
C464        C  0.23171377  0.66195009  0.72649756     0.84340
O465        O  0.20931069  0.66688691  0.72443891    -0.66280
Ni466      Ni  0.14880439  0.71989015  0.68266041     1.27450
Ni467      Ni  0.20209583  0.71682606  0.66407255     1.26060
H468        H  0.22069894  0.71769850  0.70417100     0.38880
O469        O  0.14848896  0.50927906  0.59918778    -0.81070
O470        O  0.20750946  0.57682679  0.53758918    -0.65760
O471        O  0.15776324  0.54884053  0.57341897    -1.12360
C472        C  0.13656116  0.50426664  0.51062815     1.05820
O473        O  0.19864460  0.56440689  0.50050398    -0.78970
O474        O  0.15121867  0.56611071  0.50903115    -0.66550
Ni475      Ni  0.16471481  0.53793849  0.60475066     1.34870
C476        C  0.13253560  0.56338828  0.52135521     0.84550
O477        O  0.18510133  0.58767303  0.57785127    -0.79510
O478        O  0.18181603  0.56699136  0.61215533    -0.89780
C479        C  0.20913871  0.57845083  0.51497506     0.84130
O480        O  0.19052811  0.52118378  0.59220128    -0.67990
O481        O  0.14480091  0.52082579  0.49786371    -0.87270
C482        C  0.21011162  0.53131551  0.59059443     0.84960
C483        C  0.18627378  0.58606373  0.60069065     1.06520
H484        H  0.19316120  0.52434178  0.53777924     0.38330
O485        O  0.17979718  0.53528521  0.53565797    -1.09930
O486        O  0.12945369  0.54568125  0.53495580    -0.66580
Ni487      Ni  0.15181901  0.52431198  0.55175585     1.26350
O488        O  0.21127800  0.54851683  0.57604652    -0.66810
O489        O  0.14663038  0.49941084  0.53045823    -0.79100
C490        C  0.12736984  0.50956720  0.59025744     0.84340
O491        O  0.12407555  0.51489320  0.56852952    -0.66280
Ni492      Ni  0.17292381  0.54165217  0.50184889     1.27450
Ni493      Ni  0.18377130  0.56208842  0.55642337     1.26060
H494        H  0.14430957  0.55973927  0.57377584     0.38880
O495        O  0.06518647  0.69910931  0.49389188    -0.81070
O496        O  0.00487779  0.63036114  0.55920770    -0.65760
O497        O  0.03263169  0.68201932  0.52710622    -1.12360
C498        C  0.08402629  0.68397916  0.59415307     1.05820
O499        O  0.00267556  0.64932321  0.59341726    -0.78970
O500        O  0.01718032  0.69170823  0.58445485    -0.66550
Ni501      Ni  0.04059577  0.67529566  0.49416375     1.34870
C502        C  0.02948597  0.70977856  0.58264055     0.84550
O503        O  0.99396282  0.65275527  0.51886247    -0.79510
O504        O  0.01833694  0.64911762  0.48921333    -0.89780
C505        C  0.99715116  0.63218462  0.58014684     0.84130
O506        O  0.06457118  0.65347390  0.50498363    -0.67990
O507        O  0.06405135  0.68077342  0.60503592    -0.87270
C508        C  0.06028726  0.63557903  0.51771758     0.84960
C509        C  0.00034018  0.64180901  0.50076817     1.06520
H510        H  0.05291689  0.64534774  0.56772134     0.38330
O511        O  0.04310376  0.65907793  0.56639834    -1.09930
O512        O  0.04714881  0.70982184  0.56827648    -0.66580
Ni513      Ni  0.05969055  0.68287391  0.54965359     1.26350
O514        O  0.04061891  0.63305768  0.52903627    -0.66810
O515        O  0.08588093  0.68099201  0.57184850    -0.79100
C516        C  0.08043388  0.70692765  0.50934045     0.84340
O517        O  0.07779563  0.70471670  0.53175941    -0.66280
Ni518      Ni  0.03318213  0.66517603  0.59750430     1.27450
Ni519      Ni  0.01846708  0.65586879  0.54284179     1.26060
H520        H  0.02244025  0.69578888  0.52808018     0.38880
O521        O  0.99108726  0.58365663  0.67066204    -0.81070
O522        O  0.07978378  0.54519689  0.73465657    -0.65760
O523        O  0.03774267  0.56949331  0.68463590    -1.12360
C524        C  0.01357892  0.49766793  0.66777897     1.05820
O525        O  0.07044032  0.50734754  0.73602600    -0.78970
O526        O  0.07390598  0.51264622  0.68854740    -0.66550
Ni527      Ni  0.01914474  0.59674928  0.68661978     1.34870
C528        C  0.06815910  0.52226900  0.66869001     0.84550
O529        O  0.07698977  0.58469824  0.70864422    -0.79510
O530        O  0.04754998  0.61181712  0.70073929    -0.89780
C531        C  0.08569486  0.52383106  0.73880530     0.84130
O532        O  0.00822801  0.58347714  0.71527200    -0.67990
O533        O  0.03261181  0.49014680  0.67891864    -0.87270
C534        C  0.02099326  0.58806979  0.73335232     0.84960
C535        C  0.06957489  0.60586029  0.70634707     1.06520
H536        H  0.02379778  0.53266260  0.72376403     0.38330
O537        O  0.03498795  0.53195260  0.71080824    -1.09930
O538        O  0.04760088  0.53188033  0.66431240    -0.66580
Ni539      Ni  0.01981351  0.54224726  0.68129298     1.26350
O540        O  0.04067254  0.57630801  0.73662548    -0.66810
O541        O  0.00209821  0.51446078  0.67646487    -0.79100
C542        C  0.99286080  0.57182281  0.65169299     0.84340
O543        O  0.00582921  0.55352332  0.65200721    -0.66280
Ni544      Ni  0.04982229  0.50093485  0.70842161     1.27450
Ni545      Ni  0.05704787  0.55831001  0.71118854     1.26060
H546        H  0.04813732  0.57192394  0.67123077     0.38880
O547        O  0.24206462  0.70144105  0.42378455    -0.81070
O548        O  0.23140342  0.71709271  0.53217582    -0.65760
O549        O  0.23194216  0.72601126  0.46478386    -1.12360
C550        C  0.31807489  0.72656173  0.48168202     1.05820
O551        O  0.25498563  0.74741018  0.53415782    -0.78970
O552        O  0.28287482  0.76695871  0.50255497    -0.66550
Ni553      Ni  0.21458209  0.70574039  0.44396648     1.34870
C554        C  0.27153193  0.77445709  0.48399430     0.84550
O555        O  0.19587939  0.72237036  0.49854913    -0.79510
O556        O  0.18523903  0.70953807  0.46197438    -0.89780
C557        C  0.24292755  0.73191968  0.54447358     0.84130
O558        O  0.22253392  0.67663594  0.45983622    -0.67990
O559        O  0.31252453  0.72861167  0.50354635    -0.87270
C560        C  0.22724306  0.67154386  0.48166320     0.84960
C561        C  0.17986911  0.71688340  0.48275029     1.06520
H562        H  0.27066798  0.70370308  0.49872906     0.38330
O563        O  0.26516628  0.71968906  0.49655682    -1.09930
O564        O  0.26399616  0.76076892  0.46760449    -0.66580
Ni565      Ni  0.26674365  0.72698027  0.46364785     1.26350
O566        O  0.22989658  0.68711970  0.49750505    -0.66810
O567        O  0.30225442  0.72751799  0.46425952    -0.79100
C568        C  0.25539737  0.71761785  0.41582418     0.84340
O569        O  0.26590096  0.73201923  0.42976366    -0.66280
Ni570      Ni  0.28348008  0.73761797  0.51861915     1.27450
Ni571      Ni  0.23056483  0.72079183  0.49827029     1.26060
H572        H  0.22539473  0.74147448  0.46148038     0.38880
O573        O  0.22344910  0.44331274  0.74397874    -0.81070
O574        O  0.23533825  0.55176390  0.73762540    -0.65760
O575        O  0.24623032  0.48615197  0.73530682    -1.12360
C576        C  0.26704809  0.49018885  0.81665742     1.05820
O577        O  0.25819079  0.56045433  0.76986166    -0.78970
O578        O  0.29101404  0.52454352  0.76513265    -0.66550
Ni579      Ni  0.22360337  0.46671101  0.71866586     1.34870
C580        C  0.29841693  0.50375734  0.76164305     0.84550
O581        O  0.23862459  0.52188852  0.70177088    -0.79510
O582        O  0.22356400  0.48724370  0.69089939    -0.89780
C583        C  0.24515350  0.56624392  0.75174751     0.84130
O584        O  0.19433458  0.48041891  0.73063723    -0.67990
O585        O  0.27762559  0.50811619  0.80886309    -0.87270
C586        C  0.18891463  0.50122122  0.73648076     0.84960
C587        C  0.23164099  0.50752213  0.68578911     1.06520
H588        H  0.22717181  0.51652735  0.77778239     0.38330
O589        O  0.24269522  0.51435420  0.77050708    -1.09930
O590        O  0.28510281  0.48604901  0.76580345    -0.66580
Ni591      Ni  0.25024538  0.48169372  0.76893500     1.26350
O592        O  0.20484013  0.51718562  0.73778164    -0.66810
O593        O  0.25320325  0.47820758  0.80314600    -0.79100
C594        C  0.24246690  0.43530541  0.75476850     0.84340
O595        O  0.25703023  0.44904005  0.76537772    -0.66280
Ni596      Ni  0.26666699  0.53260058  0.78729031     1.27450
Ni597      Ni  0.24001583  0.51883239  0.73614620     1.26060
H598        H  0.26163982  0.48381699  0.72785833     0.38880
O599        O  0.52476296  0.48285813  0.17615510    -0.81070
O600        O  0.61872852  0.52896239  0.22445664    -0.65760
O601        O  0.55454344  0.50737078  0.20813413    -1.12360
C602        C  0.54860004  0.58117794  0.17124353     1.05820
O603        O  0.60065779  0.55904686  0.23804963    -0.78970
O604        O  0.55426303  0.56180603  0.23505881    -0.66550
Ni605      Ni  0.55520460  0.47710980  0.19263903     1.34870
C606        C  0.53289737  0.56214594  0.22704475     0.84550
O607        O  0.59245801  0.49079748  0.23593826    -0.79510
O608        O  0.58589748  0.46627221  0.20673035    -0.89780
C609        C  0.61945022  0.55040742  0.22926344     0.84130
O610        O  0.57185940  0.49069837  0.16620049    -0.67990
O611        O  0.55720078  0.58792028  0.19159284    -0.87270
C612        C  0.59253180  0.50027653  0.16824455     0.84960
C613        C  0.59823581  0.47274464  0.22489762     1.06520
H614        H  0.58936974  0.54641950  0.18503837     0.38330
O615        O  0.57858621  0.54472900  0.19825452    -1.09930
O616        O  0.52731021  0.55048724  0.20854390    -0.66580
Ni617      Ni  0.54830864  0.53363615  0.18680313     1.26350
O618        O  0.60161785  0.50549165  0.18869499    -0.66810
O619        O  0.54497639  0.55985152  0.16614430    -0.79100
C620        C  0.51698322  0.50101953  0.16507967     0.84340
O621        O  0.51934970  0.52138617  0.17337680    -0.66280
Ni622      Ni  0.57884621  0.57297417  0.21536144     1.27450
Ni623      Ni  0.58648110  0.51774871  0.21708592     1.26060
H624        H  0.54395026  0.50744781  0.22159718     0.38880
O625        O  0.64254017  0.58058747  0.01261136    -0.81070
O626        O  0.70673720  0.50574836  0.07335744    -0.65760
O627        O  0.67430246  0.56024208  0.04801321    -1.12360
C628        C  0.73620536  0.57456579  0.00027244     1.05820
O629        O  0.74465107  0.51313550  0.06256749    -0.78970
O630        O  0.74191177  0.55960524  0.06098057    -0.66550
Ni631      Ni  0.64075408  0.55918063  0.03969964     1.34870
C632        C  0.73208968  0.57946406  0.05712433     0.84550
O633        O  0.66904342  0.53124982  0.08695630    -0.79510
O634        O  0.63404549  0.53867408  0.06696464    -0.89780
C635        C  0.72957792  0.50362450  0.07656466     0.84130
O636        O  0.64835159  0.53459818  0.01897224    -0.67990
O637        O  0.74987579  0.56244750  0.01445744    -0.87270
C638        C  0.65100203  0.51434746  0.02764173     0.84960
C639        C  0.64592779  0.53130436  0.08563728     1.06520
H640        H  0.70581507  0.52264167  0.02102081     0.38330
O641        O  0.70953308  0.53485578  0.03226879    -1.09930
O642        O  0.71504689  0.58282200  0.04169355    -0.66580
Ni643      Ni  0.69482320  0.56362278  0.02163398     1.26350
O644        O  0.66713275  0.51026399  0.04408799    -0.66810
O645        O  0.71522105  0.56745196  0.99541863    -0.79100
C646        C  0.65882007  0.59451663  0.00574394     0.84340
O647        O  0.68067148  0.59182123  0.01172342    -0.66280
Ni648      Ni  0.74443192  0.53667107  0.03727528     1.27450
Ni649      Ni  0.68956300  0.53219047  0.06001642     1.26060
H650        H  0.67678618  0.57258734  0.05941151     0.38880
O651        O  0.53792929  0.73442978  0.08371111    -0.81070
O652        O  0.60593808  0.68379865  0.01060029    -0.65760
O653        O  0.55243676  0.70774251  0.04427614    -1.12360
C654        C  0.55729277  0.64061899  0.09025818     1.05820
O655        O  0.59754550  0.64611656  0.01406694    -0.78970
O656        O  0.55287383  0.65493381  0.02445129    -0.66550
Ni657      Ni  0.55794019  0.73908161  0.05616144     1.34870
C658        C  0.53342181  0.65101109  0.03408503     0.84550
O659        O  0.57697289  0.72010077  0.00516738    -0.79510
O660        O  0.58014988  0.74831891  0.03109653    -0.89780
C661        C  0.60842143  0.66292367  0.00422888     0.84130
O662        O  0.58473944  0.72839866  0.07586463    -0.67990
O663        O  0.56108799  0.63107920  0.07008504    -0.87270
C664        C  0.60374708  0.71842446  0.06849371     0.84960
C665        C  0.58658634  0.73882774  0.01173458     1.06520
H666        H  0.59567525  0.67293540  0.06289440     0.38330
O667        O  0.58144378  0.67200847  0.05253315    -1.09930
O668        O  0.52884672  0.66328567  0.05236366    -0.66580
Ni669      Ni  0.55339582  0.68416667  0.06836177     1.26350
O670        O  0.60474204  0.71087833  0.04723400    -0.66810
O671        O  0.55712897  0.66236625  0.09300462    -0.79100
C672        C  0.52776475  0.71724007  0.09394124     0.84340
O673        O  0.52707938  0.69719246  0.08471392    -0.66280
Ni674      Ni  0.57893145  0.64101017  0.04175577     1.27450
Ni675      Ni  0.57966637  0.69568481  0.02800077     1.26060
H676        H  0.53780213  0.70703472  0.03443151     0.38880
O677        O  0.75601917  0.63813135  0.14088099    -0.81070
O678        O  0.67665679  0.67316037  0.20687021    -0.65760
O679        O  0.71102899  0.65196461  0.15356723    -1.12360
C680        C  0.73974067  0.72376149  0.14177934     1.05820
O681        O  0.68378883  0.71160770  0.20711027    -0.78970
O682        O  0.67879051  0.70870996  0.15904034    -0.66550
Ni683      Ni  0.72929933  0.62401615  0.15634901     1.34870
C684        C  0.68247964  0.70201299  0.13787766     0.84550
O685        O  0.67429580  0.63593249  0.17911801    -0.79510
O686        O  0.70256809  0.60823557  0.17251006    -0.89780
C687        C  0.67233432  0.69362101  0.21421644     0.84130
O688        O  0.74434273  0.63576544  0.18416447    -0.67990
O689        O  0.72084305  0.73102061  0.15205739    -0.87270
C690        C  0.73360436  0.63284471  0.20321046     0.84960
C691        C  0.68130100  0.61460148  0.17912902     1.06520
H692        H  0.72968005  0.68599238  0.19351836     0.38330
O693        O  0.71745733  0.68765826  0.18088696    -1.09930
O694        O  0.70286191  0.69297411  0.13194816    -0.66580
Ni695      Ni  0.73021574  0.67888398  0.15088864     1.26350
O696        O  0.71353521  0.64348895  0.20575756    -0.66810
O697        O  0.75001206  0.70541713  0.14932777    -0.79100
C698        C  0.75284186  0.64910149  0.12131864     0.84340
O699        O  0.74241603  0.66883206  0.12129708    -0.66280
Ni700      Ni  0.70372778  0.71888445  0.18009596     1.27450
Ni701      Ni  0.69497396  0.66193056  0.18117787     1.26060
H702        H  0.69958959  0.65077970  0.14024512     0.38880
O703        O  0.81592322  0.47061160  0.44758738    -0.81070
O704        O  0.75527180  0.41419962  0.36831839    -0.65760
O705        O  0.78186368  0.44348784  0.42487229    -1.12360
C706        C  0.81518789  0.36858030  0.43555066     1.05820
O707        O  0.74218598  0.38912357  0.39313007    -0.78970
O708        O  0.75329439  0.39476720  0.43835723    -0.66550
Ni709      Ni  0.79653556  0.47330604  0.41876606     1.34870
C710        C  0.76526594  0.39582467  0.45769256     0.84550
O711        O  0.74924049  0.45666277  0.38874532    -0.79510
O712        O  0.77951906  0.48083535  0.38884848    -0.89780
C713        C  0.75002548  0.39315486  0.37258193     0.84130
O714        O  0.82072550  0.45763659  0.40104958    -0.67990
O715        O  0.79268969  0.36347458  0.43348658    -0.87270
C716        C  0.81618147  0.44574126  0.38234280     0.84960
C717        C  0.76042907  0.47295722  0.37894478     1.06520
H718        H  0.79716934  0.39824210  0.39363880     0.38330
O719        O  0.78621080  0.40278100  0.40599077    -1.09930
O720        O  0.78572625  0.40579079  0.45803925    -0.66580
Ni721      Ni  0.80402176  0.41724754  0.43097894     1.26350
O722        O  0.79495223  0.43826347  0.37707762    -0.66810
O723        O  0.82336341  0.38949185  0.43448727    -0.79100
C724        C  0.82863162  0.45437426  0.45753423     0.84340
O725        O  0.82480780  0.43276662  0.45380608    -0.66280
Ni726      Ni  0.76683469  0.37690883  0.41373543     1.27450
Ni727      Ni  0.76775547  0.42964270  0.39665746     1.26060
H728        H  0.77002002  0.44477351  0.43719693     0.38880
O729        O  0.79615047  0.29587978  0.23920920    -0.81070
O730        O  0.87447874  0.24444423  0.30481413    -0.65760
O731        O  0.81567834  0.26383985  0.27421770    -1.12360
C732        C  0.80967999  0.31984936  0.33307575     1.05820
O733        O  0.86401620  0.25083823  0.34221616    -0.78970
O734        O  0.81784818  0.25494628  0.33366718    -0.66550
Ni735      Ni  0.81774242  0.26877848  0.23961551     1.34870
C736        C  0.79688140  0.26296182  0.33446325     0.84550
O737        O  0.84824333  0.22787027  0.26982872    -0.79510
O738        O  0.84230462  0.24424325  0.23451174    -0.89780
C739        C  0.87660167  0.24039153  0.32684981     0.84130
O740        O  0.84327870  0.29048089  0.24191341    -0.67990
O741        O  0.81902480  0.30352033  0.34646249    -0.87270
C742        C  0.86337318  0.28735370  0.25297752     0.84960
C743        C  0.85531645  0.23152808  0.24887885     1.06520
H744        H  0.85441889  0.29329902  0.30498745     0.38330
O745        O  0.84217141  0.28190763  0.30841645    -1.09930
O746        O  0.78987807  0.27670714  0.31734586    -0.66580
Ni747      Ni  0.81182403  0.29118434  0.29311096     1.26350
O748        O  0.86637733  0.27225610  0.26960463    -0.66810
O749        O  0.81017153  0.31919945  0.31051175    -0.79100
C750        C  0.78499763  0.30774358  0.25471405     0.84340
O751        O  0.78340575  0.30055301  0.27605930    -0.66280
Ni752      Ni  0.84158856  0.27683248  0.34200377     1.27450
Ni753      Ni  0.84546919  0.25435273  0.28950321     1.26060
H754        H  0.80319129  0.25268326  0.27761361     0.38880
O755        O  0.92153003  0.22198421  0.40960965    -0.81070
O756        O  0.94769784  0.31227998  0.46580588    -0.65760
O757        O  0.93105203  0.26833978  0.41790788    -1.12360
C758        C  0.00818815  0.24855748  0.41280180     1.05820
O759        O  0.98781781  0.30696400  0.47111928    -0.78970
O760        O  0.98354055  0.30667973  0.42260846    -0.66550
Ni761      Ni  0.90371781  0.24934094  0.41959856     1.34870
C762        C  0.97616884  0.29993891  0.40206787     0.84550
O763        O  0.91003500  0.30635173  0.43589744    -0.79510
O764        O  0.88426767  0.27653780  0.42884495    -0.89780
C765        C  0.96836991  0.31870248  0.47386933     0.84130
O766        O  0.91257392  0.24061088  0.45130833    -0.67990
O767        O  0.01266336  0.26879218  0.42064843    -0.87270
C768        C  0.90786894  0.25469293  0.46755618     0.84960
C769        C  0.88876199  0.29813575  0.43334731     1.06520
H770        H  0.96671627  0.26035397  0.46200450     0.38330
O771        O  0.96746949  0.27014234  0.44785375    -1.09930
O772        O  0.97157320  0.27831127  0.39799267    -0.66580
Ni773      Ni  0.96116326  0.25279008  0.41962627     1.26350
O774        O  0.91928219  0.27400439  0.46837873    -0.66810
O775        O  0.99147847  0.23722567  0.42187936    -0.79100
C776        C  0.93567720  0.22208756  0.39199879     0.84340
O777        O  0.95368593  0.23547874  0.39207105    -0.66280
Ni778      Ni  0.99790247  0.28645936  0.44633499     1.27450
Ni779      Ni  0.93850918  0.28911344  0.44307153     1.26060
H780        H  0.92914257  0.27723919  0.40316744     0.38880
O781        O  0.99442380  0.43584397  0.33127227    -0.81070
O782        O  0.94965609  0.35917573  0.26319687    -0.65760
O783        O  0.97169731  0.41484836  0.29218844    -1.12360
C784        C  0.89254198  0.41946932  0.31897600     1.05820
O785        O  0.91750393  0.37728388  0.24804834    -0.78970
O786        O  0.91839686  0.42107587  0.25797240    -0.66550
Ni787      Ni  0.00185908  0.41029679  0.31025615     1.34870
C788        C  0.91889964  0.44042478  0.26809385     0.84550
O789        O  0.98982887  0.38389077  0.26045278    -0.79510
O790        O  0.01389357  0.38341777  0.29216907    -0.89780
C791        C  0.92987701  0.35876655  0.25143193     0.84130
O792        O  0.98670203  0.38954042  0.33182282    -0.67990
O793        O  0.88754967  0.41355006  0.29733970    -0.87270
C794        C  0.97762997  0.37011863  0.32581221     0.84960
C795        C  0.00789534  0.37549591  0.27165902     1.06520
H796        H  0.92903689  0.37873541  0.30468213     0.38330
O797        O  0.93189787  0.39138621  0.29355615    -1.09930
O798        O  0.92830769  0.44211393  0.28904740    -0.66580
Ni799      Ni  0.94284959  0.41801064  0.31046365     1.26350
O800        O  0.97144788  0.36598666  0.30402918    -0.66810
O801        O  0.91402736  0.41916664  0.32788343    -0.79100
C802        C  0.97541671  0.44652754  0.33804107     0.84340
O803        O  0.95454132  0.44323392  0.32878707    -0.66280
Ni804      Ni  0.90406299  0.39534971  0.27319291     1.27450
Ni805      Ni  0.96101615  0.38691740  0.27729906     1.26060
H806        H  0.97298581  0.42735961  0.28055726     0.38880
O807        O  0.82333628  0.47943654  0.21097237    -0.81070
O808        O  0.71047108  0.48798764  0.21774545    -0.65760
O809        O  0.77861125  0.48905631  0.22995878    -1.12360
C810        C  0.76623545  0.40616439  0.23855258     1.05820
O811        O  0.71038463  0.46695247  0.25027939    -0.78970
O812        O  0.74205679  0.44078729  0.27341850    -0.66550
Ni813      Ni  0.79973012  0.50485030  0.20935838     1.34870
C814        C  0.75845304  0.45449504  0.28038958     0.84550
O815        O  0.74281966  0.52294577  0.22378984    -0.79510
O816        O  0.77883607  0.53241409  0.20872438    -0.89780
C817        C  0.69886046  0.47691753  0.23334952     0.84130
O818        O  0.78574241  0.49339206  0.17978392    -0.67990
O819        O  0.74366279  0.41086316  0.23667584    -0.87270
C820        C  0.76362332  0.49010794  0.17367020     0.84960
C821        C  0.75824499  0.53803292  0.21726036     1.06520
H822        H  0.74764478  0.45013027  0.20761159     0.38330
O823        O  0.74873743  0.45607382  0.22369574    -1.09930
O824        O  0.77477072  0.46151987  0.26671982    -0.66580
Ni825      Ni  0.78161686  0.45581106  0.23392879     1.26350
O826        O  0.74684494  0.48987801  0.18880520    -0.66810
O827        O  0.78293542  0.42176103  0.23881894    -0.79100
C828        C  0.83000438  0.46915055  0.23053385     0.84340
O829        O  0.81485596  0.45823826  0.24310236    -0.66280
Ni830      Ni  0.72686803  0.43904589  0.24274862     1.27450
Ni831      Ni  0.74483703  0.48952729  0.22310614     1.26060
H832        H  0.78102850  0.49647029  0.24525444     0.38880
O833        O  0.81125139  0.73638576  0.00591500    -0.81070
O834        O  0.70022401  0.72546243  0.99956022    -0.65760
O835        O  0.76726161  0.72528296  0.98440875    -1.12360
C836        C  0.75257157  0.80816906  0.97521260     1.05820
O837        O  0.69330620  0.74653275  0.96695058    -0.78970
O838        O  0.72505537  0.76776323  0.93920915    -0.66550
Ni839      Ni  0.79094171  0.70962675  0.00469295     1.34870
C840        C  0.74568048  0.76087490  0.93264949     0.84550
O841        O  0.73384241  0.68990445  0.99454310    -0.79510
O842        O  0.77284809  0.68129773  0.00402367    -0.89780
C843        C  0.68553984  0.73631058  0.98534163     0.84130
O844        O  0.77846193  0.71843020  0.03480627    -0.67990
O845        O  0.73034360  0.80275458  0.97177689    -0.87270
C846        C  0.75765187  0.72472010  0.04152940     0.84960
C847        C  0.75119934  0.67512220  0.99895824     1.06520
H848        H  0.73494467  0.76449213  0.00568502     0.38330
O849        O  0.73605443  0.75782396  0.98996306    -1.09930
O850        O  0.76310344  0.75651870  0.94744185    -0.66580
Ni851      Ni  0.76907798  0.75884264  0.98141343     1.26350
O852        O  0.73949304  0.72665538  0.02702971    -0.66810
O853        O  0.76956016  0.79289373  0.97907065    -0.79100
C854        C  0.81788719  0.74612182  0.98680965     0.84340
O855        O  0.80255233  0.75725627  0.97358252    -0.66280
Ni856      Ni  0.71250733  0.77403511  0.96991646     1.27450
Ni857      Ni  0.73409187  0.72411325  0.99273219     1.26060
H858        H  0.76855712  0.71851483  0.96874741     0.38880
O859        O  0.19908670  0.22476596  0.15699408    -0.81070
O860        O  0.26735399  0.15748398  0.20786094    -0.65760
O861        O  0.21198995  0.18614994  0.17945310    -1.12360
C862        C  0.19946527  0.22581712  0.24639297     1.05820
O863        O  0.26138208  0.16345493  0.24645833    -0.78970
O864        O  0.21338168  0.16340553  0.23865192    -0.66550
Ni865      Ni  0.21248546  0.19605623  0.14723892     1.34870
C866        C  0.19316602  0.16794999  0.22807725     0.84550
O867        O  0.23797658  0.14729246  0.17184264    -0.79510
O868        O  0.22613554  0.16618178  0.13762546    -0.89780
C869        C  0.27076690  0.15201974  0.22961267     0.84130
O870        O  0.24252946  0.21102643  0.14991363    -0.67990
O871        O  0.20965805  0.20802361  0.25643993    -0.87270
C872        C  0.26201793  0.20037245  0.15475506     0.84960
C873        C  0.23299362  0.14774869  0.14951379     1.06520
H874        H  0.25214475  0.20830018  0.21381990     0.38330
O875        O  0.23897493  0.19752606  0.21574265    -1.09930
O876        O  0.18823295  0.18821215  0.21950632    -0.66580
Ni877      Ni  0.20867699  0.20997396  0.20263228     1.26350
O878        O  0.26384310  0.18576458  0.17204391    -0.66810
O879        O  0.20634365  0.23293818  0.22636684    -0.79100
C880        C  0.17862521  0.22252167  0.16599107     0.84340
O881        O  0.17837877  0.22101249  0.18845228    -0.66280
Ni882      Ni  0.23608029  0.18677629  0.24867348     1.27450
Ni883      Ni  0.24004791  0.17221118  0.19331964     1.26060
H884        H  0.19890206  0.17514618  0.18039628     0.38880
O885        O  0.04412634  0.09281043  0.15428556    -0.81070
O886        O  0.11582387  0.04183327  0.22979163    -0.65760
O887        O  0.08473796  0.06764829  0.17366221    -1.12360
C888        C  0.04274880  0.00154372  0.16419686     1.05820
O889        O  0.11057856  0.00377537  0.22307886    -0.78970
O890        O  0.10593758  0.00549487  0.17630926    -0.66550
Ni891      Ni  0.07229515  0.09871472  0.17448325     1.34870
C892        C  0.10040230  0.01352346  0.15569457     0.84550
O893        O  0.12446727  0.07877656  0.20234484    -0.79510
O894        O  0.09977295  0.10919302  0.19398179    -0.89780
C895        C  0.12278952  0.02068356  0.23167488     0.84130
O896        O  0.05371989  0.09003883  0.20089126    -0.67990
O897        O  0.05991114  0.99069131  0.17550796    -0.87270
C898        C  0.06378113  0.08864258  0.22129567     0.84960
C899        C  0.12008889  0.10068603  0.20173534     1.06520
H900        H  0.06334228  0.03511927  0.21415867     0.38330
O901        O  0.07449990  0.03267189  0.20139752    -1.09930
O902        O  0.08189906  0.02665566  0.15164789    -0.66580
Ni903      Ni  0.06059299  0.04436563  0.17201749     1.26350
O904        O  0.08221895  0.07526201  0.22491969    -0.66810
O905        O  0.03637024  0.02138378  0.17114736    -0.79100
C906        C  0.03815161  0.07613069  0.14063233     0.84340
O907        O  0.04713388  0.05599730  0.14309381    -0.66280
Ni908      Ni  0.08372117  0.99988432  0.20049915     1.27450
Ni909      Ni  0.09984325  0.05552804  0.20252581     1.26060
H910        H  0.09581919  0.06641008  0.16065387     0.38880
O911        O  0.10792489  0.19999736  0.00711720    -0.81070
O912        O  0.03708587  0.12676317  0.05284902    -0.65760
O913        O  0.07180137  0.17967193  0.03210796    -1.12360
C914        C  0.10784479  0.17492981  0.10746772     1.05820
O915        O  0.02672724  0.14613399  0.08481460    -0.78970
O916        O  0.04664560  0.18695722  0.08281286    -0.66550
Ni917      Ni  0.08491075  0.17575119  0.00071829     1.34870
C918        C  0.06022696  0.20359607  0.08749598     0.84550
O919        O  0.03463245  0.15357802  0.01396297    -0.79510
O920        O  0.06421781  0.15017847  0.98956697    -0.89780
C921        C  0.02490816  0.12830833  0.07154717     0.84130
O922        O  0.10691442  0.15303764  0.01382123    -0.67990
O923        O  0.08586923  0.17154896  0.11379719    -0.87270
C924        C  0.10041508  0.13360135  0.02268820     0.84960
C925        C  0.04379835  0.14341707  0.99671590     1.06520
H926        H  0.08282232  0.13877690  0.07241112     0.38330
O927        O  0.07372346  0.15319505  0.07013840    -1.09930
O928        O  0.08027273  0.20413533  0.07668119    -0.66580
Ni929      Ni  0.09437247  0.17719480  0.05900981     1.26350
O930        O  0.07884168  0.13061817  0.03029095    -0.66810
O931        O  0.11467503  0.17227458  0.08607466    -0.79100
C932        C  0.12230020  0.20408974  0.02481474     0.84340
O933        O  0.11768963  0.19829025  0.04629268    -0.66280
Ni934      Ni  0.05644997  0.15882019  0.09799372     1.27450
Ni935      Ni  0.05433559  0.15294501  0.04203430     1.26060
H936        H  0.06187502  0.19364474  0.03278663     0.38880
O937        O  0.18432712  0.98941835  0.08586239    -0.81070
O938        O  0.24348197  0.06148366  0.03327333    -0.65760
O939        O  0.19396803  0.03106179  0.06630321    -1.12360
C940        C  0.16830319  0.99856686  0.99812509     1.05820
O941        O  0.23507845  0.05342515  0.99500785    -0.78970
O942        O  0.18807528  0.05859485  0.00757636    -0.66550
Ni943      Ni  0.20129010  0.01641837  0.09591579     1.34870
C944        C  0.16898426  0.05549187  0.01946517     0.84550
O945        O  0.22210418  0.06781550  0.07419402    -0.79510
O946        O  0.21846007  0.04437059  0.10671313    -0.89780
C947        C  0.24652383  0.06470754  0.01115338     0.84130
O948        O  0.22805476  0.00132657  0.08266471    -0.67990
O949        O  0.17693460  0.01668307  0.98835201    -0.87270
C950        C  0.24704449  0.01268308  0.08124658     0.84960
C951        C  0.22345086  0.06410151  0.09668528     1.06520
H952        H  0.22698038  0.01032623  0.02637836     0.38330
O953        O  0.21411563  0.02191947  0.02622379    -1.09930
O954        O  0.16434050  0.03565484  0.02908757    -0.66580
Ni955      Ni  0.18583403  0.01037630  0.04144511     1.26350
O956        O  0.24734061  0.02995217  0.06684876    -0.66810
O957        O  0.17865544  0.98971798  0.01636103    -0.79100
C958        C  0.16249392  0.99220123  0.07914784     0.84340
O959        O  0.15821290  0.99955016  0.05805582    -0.66280
Ni960      Ni  0.20677055  0.03399134  0.99428915     1.27450
Ni961      Ni  0.21956158  0.04546967  0.05013742     1.26060
H962        H  0.18113736  0.04235324  0.06868542     0.38880
O963        O  0.30690380  0.22217837  0.05207204    -0.81070
O964        O  0.27818914  0.24621970  0.94551075    -0.65760
O965        O  0.27641081  0.23854814  0.01421356    -1.12360
C966        C  0.26684067  0.15874213  0.99303740     1.05820
O967        O  0.24494119  0.22584389  0.94349162    -0.78970
O968        O  0.22490235  0.20113645  0.97755689    -0.66550
Ni969      Ni  0.30088747  0.25097790  0.03495338     1.34870
C970        C  0.22163103  0.20711781  0.99897213     0.84550
O971        O  0.27934473  0.27733334  0.98330421    -0.79510
O972        O  0.29617363  0.28097242  0.02026994    -0.89780
C973        C  0.26119611  0.23703815  0.93299905     0.84130
O974        O  0.32805767  0.24393846  0.01601652    -0.67990
O975        O  0.25947716  0.16639983  0.97253965    -0.87270
C976        C  0.33065472  0.24065991  0.99387150     0.84960
C977        C  0.28680170  0.28968538  0.00101691     1.06520
H978        H  0.29176754  0.20394412  0.97500955     0.38330
O979        O  0.27627329  0.21022065  0.97958332    -1.09930
O980        O  0.23903339  0.20895813  0.01424044    -0.66580
Ni981      Ni  0.27396003  0.20530944  0.01324294     1.26350
O982        O  0.31290515  0.24108964  0.97882324    -0.66810
O983        O  0.27192635  0.17198000  0.01067362    -0.79100
C984        C  0.29038212  0.20987938  0.06089141     0.84340
O985        O  0.27343189  0.20202294  0.04750747    -0.66280
Ni986      Ni  0.25269645  0.19658568  0.95871720     1.27450
Ni987      Ni  0.27805289  0.24362642  0.98030421     1.26060
H988        H  0.26121989  0.24515150  0.01923729     0.38880
O989        O  0.29777272  0.99029564  0.18396260    -0.81070
O990        O  0.28631649  0.96608316  0.29196608    -0.65760
O991        O  0.27411291  0.97523318  0.22466442    -1.12360
C992        C  0.27715382  0.05529236  0.24713213     1.05820
O993        O  0.25742374  0.99139510  0.30016950    -0.78970
O994        O  0.23495407  0.02104880  0.26898665    -0.66550
Ni995      Ni  0.29555240  0.96191076  0.20215135     1.34870
C996        C  0.22601316  0.01431086  0.24913176     0.84550
O997        O  0.27952886  0.93644618  0.25462334    -0.79510
O998        O  0.29507585  0.93201619  0.21807741    -0.89780
C999        C  0.27288341  0.97600441  0.30704879     0.84130
O1000       O  0.32495995  0.97046734  0.21788365    -0.67990
O1001       O  0.27544789  0.04830816  0.26877559    -0.87270
C1002       C  0.33097255  0.97140031  0.23983424     0.84960
C1003       C  0.28717620  0.92379945  0.23762509     1.06520
H1004       H  0.29939579  0.00739125  0.26078342     0.38330
O1005       O  0.28260630  0.00298803  0.25902720    -1.09930
O1006       O  0.23901375  0.00783632  0.23179269    -0.66580
Ni1007     Ni  0.27362450  0.00854643  0.22631592     1.26350
O1008       O  0.31582623  0.96877554  0.25631871    -0.66810
O1009       O  0.27440508  0.04192587  0.22912793    -0.79100
C1010       C  0.28004224  0.00314160  0.17719943     0.84340
O1011       O  0.26606706  0.01206557  0.19248497    -0.66280
Ni1012     Ni  0.26661366  0.01939025  0.28347406     1.27450
Ni1013     Ni  0.28098174  0.96972260  0.25792678     1.26060
H1014       H  0.25799706  0.96969529  0.22089746     0.38880
O1015       O  0.03397832  0.92806772  0.99760683    -0.81070
O1016       O  0.02732146  0.03370504  0.01092345    -0.65760
O1017       O  0.01100376  0.96895199  0.01174790    -1.12360
C1018       C  0.99647325  0.98354105  0.92782696     1.05820
O1019       O  0.99334933  0.04136075  0.99085931    -0.78970
O1020       O  0.96303916  0.00965789  0.97285010    -0.66550
Ni1021     Ni  0.03273725  0.94631551  0.02609172     1.34870
C1022       C  0.95645742  0.98981459  0.98050783     0.84550
O1023       O  0.02500373  0.00088867  0.04735178    -0.79510
O1024       O  0.03291538  0.96288186  0.05571351    -0.89780
C1025       C  0.01315005  0.04827803  0.00016856     0.84130
O1026       O  0.06265479  0.95939591  0.01710639    -0.67990
O1027       O  0.99260091  0.00471681  0.93374481    -0.87270
C1028       C  0.06851916  0.97920607  0.00904550     0.84960
C1029       C  0.02964042  0.98396020  0.06223380     1.06520
H1030       H  0.02932003  0.00070135  0.97063402     0.38330
O1031       O  0.01400830  0.99943685  0.97847816    -1.09930
O1032       O  0.97102604  0.97240750  0.98257801    -0.66580
Ni1033     Ni  0.00537012  0.96735879  0.97774667     1.26350
O1034       O  0.05362301  0.99621300  0.00714844    -0.66810
O1035       O  0.00076893  0.96711675  0.94324080    -0.79100
C1036       C  0.01514276  0.92038478  0.98717931     0.84340
O1037       O  0.99883494  0.93445332  0.97905231    -0.66280
Ni1038     Ni  0.99316867  0.02211477  0.96305721     1.27450
Ni1039     Ni  0.01971306  0.00106374  0.01261472     1.26060
H1040       H  0.99577024  0.96740171  0.01968379     0.38880
O1041       O  0.02840193  0.20853087  0.30700201    -0.81070
O1042       O  0.05514715  0.21989937  0.20235962    -0.65760
O1043       O  0.04310984  0.23357681  0.26788196    -1.12360
C1044       C  0.96041683  0.23613262  0.24105665     1.05820
O1045       O  0.03047329  0.24845955  0.18963368    -0.78970
O1046       O  0.00896276  0.27469776  0.22243359    -0.66550
Ni1047     Ni  0.05867340  0.21615460  0.29345105     1.34870
C1048       C  0.01044519  0.28036196  0.24429009     0.84550
O1049       O  0.08480515  0.22758670  0.24134273    -0.79510
O1050       O  0.08969193  0.22332521  0.28138149    -0.89780
C1051       C  0.04570425  0.23229808  0.18538846     0.84130
O1052       O  0.05955315  0.18603425  0.27934520    -0.67990
O1053       O  0.96930528  0.24413364  0.22174490    -0.87270
C1054       C  0.05464408  0.17909011  0.25837792     0.84960
C1055       C  0.09797481  0.22695509  0.26063528     1.06520
H1056       H  0.01017210  0.21008995  0.22822835     0.38330
O1057       O  0.01531985  0.22580007  0.23165711    -1.09930
O1058       O  0.00773418  0.26570196  0.26121763    -0.66580
Ni1059     Ni  0.00842174  0.23215922  0.26439463     1.26350
O1060       O  0.04991674  0.19287643  0.24075980    -0.66810
O1061       O  0.97369826  0.23021464  0.25932532    -0.79100
C1062       C  0.01499366  0.22511300  0.31366094     0.84340
O1063       O  0.00399440  0.23777663  0.29790865    -0.66280
Ni1064     Ni  0.00092357  0.24585676  0.20738639     1.27450
Ni1065     Ni  0.05006578  0.22631404  0.23569630     1.26060
H1066       H  0.04775925  0.24961045  0.27029095     0.38880
O1067       O  0.49560451  0.66254736  0.26470882    -0.81070
O1068       O  0.49293797  0.76988176  0.26057590    -0.65760
O1069       O  0.49033085  0.70585284  0.24222878    -1.12360
C1070       C  0.57601958  0.71252348  0.24165163     1.05820
O1071       O  0.51798769  0.77693924  0.23127678    -0.78970
O1072       O  0.53469341  0.74359667  0.20399699    -0.66550
Ni1073     Ni  0.46952822  0.68412640  0.25703777     1.34870
C1074       C  0.52762503  0.72415018  0.19598753     0.84550
O1075       O  0.45612822  0.74083699  0.24992194    -0.79510
O1076       O  0.44220597  0.70405182  0.24921482    -0.89780
C1077       C  0.50402196  0.78413182  0.24721145     0.84130
O1078       O  0.47142150  0.69544007  0.28906075    -0.67990
O1079       O  0.57128389  0.73403932  0.23747679    -0.87270
C1080       C  0.48102563  0.71326075  0.29848147     0.84960
C1081       C  0.43906920  0.72613053  0.24710219     1.06520
H1082       H  0.53114054  0.73332920  0.26941367     0.38330
O1083       O  0.52511849  0.73278692  0.25304230    -1.09930
O1084       O  0.52471381  0.70638326  0.20943134    -0.66580
Ni1085     Ni  0.52463746  0.70074828  0.24359035     1.26350
O1086       O  0.49002117  0.72985500  0.28619084    -0.66810
O1087       O  0.55961160  0.69721762  0.24484396    -0.79100
C1088       C  0.50902751  0.65460515  0.24856799     0.84340
O1089       O  0.52152365  0.66832848  0.23591095    -0.66280
Ni1090     Ni  0.54363149  0.75431906  0.23503578     1.27450
Ni1091     Ni  0.49073047  0.73738988  0.25221190     1.26060
H1092       H  0.48497865  0.70622582  0.22563433     0.38880
O1093       O  0.00329081  0.42297483  0.50249375    -0.81070
O1094       O  0.99174073  0.52989895  0.51772666    -0.65760
O1095       O  0.97916010  0.46408271  0.51577021    -1.12360
C1096       C  0.96916078  0.48135198  0.43261051     1.05820
O1097       O  0.95759001  0.53583328  0.49727267    -0.78970
O1098       O  0.93017346  0.50283689  0.47587387    -0.66550
Ni1099     Ni  0.00101415  0.44161698  0.53065800     1.34870
C1100       C  0.92520408  0.48172687  0.48069799     0.84550
O1101       O  0.99012077  0.49524969  0.55253124    -0.79510
O1102       O  0.99922619  0.45734518  0.56054411    -0.89780
C1103       C  0.97656270  0.54388017  0.50733465     0.84130
O1104       O  0.03106108  0.45635277  0.52270045    -0.67990
O1105       O  0.96207319  0.50174867  0.43859353    -0.87270
C1106       C  0.03648468  0.47697656  0.51611487     0.84960
C1107       C  0.99475691  0.47810946  0.56709296     1.06520
H1108       H  0.99777261  0.49898013  0.47678639     0.38330
O1109       O  0.98228508  0.49619552  0.48386764    -1.09930
O1110       O  0.94148367  0.46600847  0.48330832    -0.66580
Ni1111     Ni  0.97618388  0.46377429  0.48162256     1.26350
O1112       O  0.02076931  0.49337289  0.51421705    -0.66810
O1113       O  0.97457771  0.46488092  0.44747986    -0.79100
C1114       C  0.98468859  0.41613721  0.49087353     0.84340
O1115       O  0.97044890  0.43103663  0.48098571    -0.66280
Ni1116     Ni  0.95997045  0.51788675  0.46862404     1.27450
Ni1117     Ni  0.98623624  0.49661260  0.51802579     1.26060
H1118       H  0.96343585  0.46163114  0.52248118     0.38880
O1119       O  0.52306552  0.43813385  0.99774815    -0.81070
O1120       O  0.51528030  0.54023129  0.02182411    -0.65760
O1121       O  0.49778299  0.47737081  0.01059492    -1.12360
C1122       C  0.49083106  0.50451896  0.93021431     1.05820
O1123       O  0.48223822  0.55257865  0.00215523    -0.78970
O1124       O  0.45389777  0.52149992  0.97862431    -0.66550
Ni1125     Ni  0.51427669  0.45224288  0.02707962     1.34870
C1126       C  0.44822620  0.50011661  0.97835484     0.84550
O1127       O  0.50866353  0.50361355  0.05092220    -0.79510
O1128       O  0.50592750  0.46492379  0.05740791    -0.89780
C1129       C  0.50070499  0.55665850  0.01549749     0.84130
O1130       O  0.54610918  0.46515740  0.02956900    -0.67990
O1131       O  0.48382956  0.52329616  0.94024895    -0.87270
C1132       C  0.55465038  0.48412858  0.02164982     0.84960
C1133       C  0.50632388  0.48592053  0.06470100     1.06520
H1134       H  0.52089075  0.51599027  0.97745624     0.38330
O1135       O  0.50504113  0.51244635  0.98335169    -1.09930
O1136       O  0.46353596  0.48357219  0.97589584    -0.66580
Ni1137     Ni  0.49840452  0.48064098  0.97632010     1.26350
O1138       O  0.54132968  0.50138484  0.01464482    -0.66810
O1139       O  0.49844727  0.48628296  0.94197486    -0.79100
C1140       C  0.50704620  0.43206547  0.98248194     0.84340
O1141       O  0.49384267  0.44762399  0.97168583    -0.66280
Ni1142     Ni  0.48353887  0.53656704  0.97171017     1.27450
Ni1143     Ni  0.50713554  0.50831731  0.01710770     1.26060
H1144       H  0.48112432  0.47616450  0.01524489     0.38880
O1145       O  0.47641535  0.97638271  0.55086520    -0.81070
O1146       O  0.48854282  0.96917308  0.44056806    -0.65760
O1147       O  0.50089562  0.96554913  0.50859760    -1.12360
C1148       C  0.50932739  0.04819570  0.49854485     1.05820
O1149       O  0.52212564  0.98935571  0.43767417    -0.78970
O1150       O  0.54948265  0.00751394  0.47411426    -0.66550
Ni1151     Ni  0.47891246  0.95048866  0.52947959     1.34870
C1152       C  0.55517108  0.00009910  0.49510743     0.84550
O1153       O  0.49063966  0.93180750  0.47312809    -0.79510
O1154       O  0.47987863  0.92287274  0.51067039    -0.89780
C1155       C  0.50368747  0.97999973  0.42774785     0.84130
O1156       O  0.44940487  0.96089176  0.51425361    -0.67990
O1157       O  0.51539413  0.04356211  0.47717305    -0.87270
C1158       C  0.44338445  0.96781949  0.49328691     0.84960
C1159       C  0.48489025  0.91693016  0.48947801     1.06520
H1160       H  0.48158179  0.00659398  0.47600643     0.38330
O1161       O  0.49727755  0.99918309  0.47850977    -1.09930
O1162       O  0.53911397  0.99581971  0.51044118    -0.66580
Ni1163     Ni  0.50407872  0.99865914  0.51199986     1.26350
O1164       O  0.45873844  0.96990038  0.47678606    -0.66810
O1165       O  0.50553595  0.03229468  0.51423731    -0.79100
C1166       C  0.49438173  0.98738830  0.55937560     0.84340
O1167       O  0.50974992  0.99625112  0.54566663    -0.66280
Ni1168     Ni  0.51885345  0.01565730  0.45842000     1.27450
Ni1169     Ni  0.49371512  0.96594367  0.47483310     1.26060
H1170       H  0.51657065  0.95812513  0.51121522     0.38880
O1171       O  0.73072597  0.29872471  0.50462293    -0.81070
O1172       O  0.73907172  0.19184917  0.51332819    -0.65760
O1173       O  0.75535463  0.25664119  0.51520438    -1.12360
C1174       C  0.76526740  0.24875801  0.43157013     1.05820
O1175       O  0.76919591  0.18332308  0.48939649    -0.78970
O1176       O  0.79983169  0.21844875  0.47746427    -0.66550
Ni1177     Ni  0.73644575  0.27874183  0.53209485     1.34870
C1178       C  0.80684666  0.23910054  0.48198051     0.84550
O1179       O  0.74568808  0.22286942  0.55088902    -0.79510
O1180       O  0.74168813  0.26079161  0.56066864    -0.89780
C1181       C  0.75132028  0.17693195  0.50164650     0.84130
O1182       O  0.70473364  0.26583802  0.52784732    -0.67990
O1183       O  0.77107255  0.22773978  0.43719522    -0.87270
C1184       C  0.69709867  0.24649523  0.51996540     0.84960
C1185       C  0.74435502  0.23929382  0.56646770     1.06520
H1186       H  0.73257110  0.22667022  0.47403222     0.38330
O1187       O  0.74860056  0.22804439  0.48123340    -1.09930
O1188       O  0.79192510  0.25624945  0.48295086    -0.66580
Ni1189     Ni  0.75678645  0.26046366  0.48119730     1.26350
O1190       O  0.71148008  0.23023300  0.51339024    -0.66810
O1191       O  0.75755019  0.26343756  0.44666883    -0.79100
C1192       C  0.74826166  0.30679919  0.49304388     0.84340
O1193       O  0.76328715  0.29305846  0.48354527    -0.66280
Ni1194     Ni  0.76950795  0.20708882  0.46465314     1.27450
Ni1195     Ni  0.74651840  0.22461328  0.51562629     1.26060
H1196       H  0.77162397  0.25747976  0.52195044     0.38880
O1197       O  0.73084062  0.03784023  0.77145669    -0.81070
O1198       O  0.74648700  0.93138889  0.76487159    -0.65760
O1199       O  0.74340117  0.99678495  0.74765457    -1.12360
C1200       C  0.65907058  0.98037785  0.73711654     1.05820
O1201       O  0.72565752  0.92491180  0.73172381    -0.78970
O1202       O  0.70357338  0.95657752  0.70236676    -0.66550
Ni1203     Ni  0.75974345  0.01965711  0.76624831     1.34870
C1204       C  0.70858870  0.97712815  0.69557556     0.84550
O1205       O  0.78204418  0.96515816  0.75938142    -0.79510
O1206       O  0.79001111  0.00360530  0.76200042    -0.89780
C1207       C  0.73605473  0.91709827  0.75072310     0.84130
O1208       O  0.75661309  0.00580099  0.79723931    -0.67990
O1209       O  0.66599571  0.95958004  0.73277292    -0.87270
C1210       C  0.74961053  0.98618457  0.80510790     0.84960
C1211       C  0.79695722  0.98235642  0.76015307     1.06520
H1212       H  0.70468230  0.96355361  0.76861579     0.38330
O1213       O  0.71160515  0.96561897  0.75306447    -1.09930
O1214       O  0.71080233  0.99419949  0.71009894    -0.66580
Ni1215     Ni  0.70855093  0.99796818  0.74483048     1.26350
O1216       O  0.74392242  0.96949073  0.79118864    -0.66810
O1217       O  0.67353622  0.99703479  0.74244722    -0.79100
C1218       C  0.71641928  0.04563894  0.75507080     0.84340
O1219       O  0.70712267  0.03168041  0.73972094    -0.66280
Ni1220     Ni  0.69644649  0.94312949  0.73272025     1.27450
Ni1221     Ni  0.74646630  0.96453644  0.75693990     1.26060
H1222       H  0.74981157  0.99815937  0.73180863     0.38880
O1223       O  0.06681216  0.75986280  0.75589734    -0.81070
O1224       O  0.95810181  0.75078024  0.76102454    -0.65760
O1225       O  0.02544869  0.73529751  0.76344762    -1.12360
C1226       C  0.01466570  0.72988243  0.67885541     1.05820
O1227       O  0.95046451  0.72091282  0.73717867    -0.78970
O1228       O  0.98691032  0.69355345  0.72412550    -0.69430
Ni1229     Ni  0.04778028  0.75214458  0.78277985     1.34870
C1230       C  0.00801340  0.68675605  0.73087826     0.84550
O1231       O  0.99077504  0.74363090  0.79763814    -0.79510
O1232       O  0.02984875  0.74431941  0.81038243    -0.89780
C1233       C  0.94327989  0.73704088  0.75071571     0.84130
O1234       O  0.03328340  0.78270381  0.78134818    -0.67990
O1235       O  0.99362205  0.72317751  0.68458968    -0.87270
C1236       C  0.01386906  0.79081861  0.77165129     0.84960
C1237       C  0.00730856  0.74201297  0.81418649     1.06520
H1238       H  0.99316059  0.75805329  0.72225800     0.38330
O1239       O  0.99522886  0.74254023  0.72906341    -1.09930
O1240       O  0.02597223  0.70063919  0.73130363    -0.66580
Ni1241     Ni  0.02914696  0.73466488  0.72946473     1.26350
O1242       O  0.99768926  0.77764845  0.76225506    -0.66810
O1243       O  0.03116096  0.73476432  0.69460153    -0.79100
C1244       C  0.07660222  0.74336727  0.74462407     0.84340
O1245       O  0.06350558  0.72919263  0.73273552    -0.66280
Ni1246     Ni  0.97357783  0.72249703  0.71212343     1.27450
Ni1247     Ni  0.99226961  0.74391104  0.76314481     1.26060
H1248       H  0.02644093  0.71944922  0.76955114     0.38880
C1249       C  0.27129317  0.09896662  0.02256932    -0.21490
C1250       C  0.26128492  0.08503554  0.00429419    -0.09530
C1251       C  0.25914811  0.09450150  0.98100056     0.29330
C1252       C  0.26276140  0.11831927  0.97717528    -0.21490
C1253       C  0.26871851  0.13304965  0.99638974    -0.09540
C1254       C  0.27466938  0.12283225  0.01882963     0.29340
F1255       F  0.28184026  0.13600961  0.03769662    -0.20060
H1256       H  0.27405919  0.09198918  0.04053458     0.17700
H1257       H  0.25916445  0.12543460  0.95938328     0.17710
F1258       F  0.25099641  0.08147684  0.96239161    -0.20050
C1259       C  0.27130861  0.02974947  0.11478264    -0.21490
C1260       C  0.26460853  0.00987664  0.10163197    -0.09530
C1261       C  0.26663949  0.98783702  0.11299471     0.29330
C1262       C  0.27234507  0.98606939  0.13743214    -0.21490
C1263       C  0.27574866  0.00616098  0.15116914    -0.09540
C1264       C  0.27624954  0.02801355  0.13955707     0.29340
F1265       F  0.28089035  0.04761474  0.15218645    -0.20060
H1266       H  0.27022584  0.04691191  0.10647983     0.17700
H1267       H  0.27270187  0.96896670  0.14596767     0.17710
F1268       F  0.26057803  0.96818166  0.10098218    -0.20050
C1269       C  0.10090020  0.00426812  0.99196113    -0.21490
C1270       C  0.09388310  0.98268054  0.00168025    -0.09530
C1271       C  0.11152684  0.96478944  0.00472804     0.29330
C1272       C  0.13581594  0.96926581  0.00041214    -0.21490
C1273       C  0.14310275  0.99151424  0.99292632    -0.09540
C1274       C  0.12523185  0.00866772  0.98749119     0.29340
F1275       F  0.13142061  0.03048961  0.98033433    -0.20060
H1276       H  0.08772997  0.01822612  0.98886829     0.17700
H1277       H  0.14923932  0.95580791  0.00476216     0.17710
F1278       F  0.10572548  0.94333300  0.01325100    -0.20050
C1279       C  0.15679095  0.09702484  0.01076417    -0.21490
C1280       C  0.15135827  0.07534434  0.02123564    -0.09530
C1281       C  0.12910707  0.07314272  0.03288131     0.29330
C1282       C  0.11271931  0.09209110  0.03352221    -0.21490
C1283       C  0.11814176  0.11369052  0.02277203    -0.09540
C1284       C  0.14058162  0.11589018  0.01146605     0.29340
F1285       F  0.14693428  0.13616473  0.00060066    -0.20060
H1286       H  0.17369781  0.09947706  0.00173989     0.17700
H1287       H  0.09569287  0.08978700  0.04237394     0.17710
F1288       F  0.12299747  0.05270661  0.04352654    -0.20050
C1289       C  0.15323473  0.21560414  0.99529477    -0.21490
C1290       C  0.14690580  0.21300491  0.01936204    -0.09530
C1291       C  0.16574584  0.21300544  0.03697422     0.29330
C1292       C  0.19011490  0.21223001  0.03039891    -0.21490
C1293       C  0.19621881  0.21178008  0.00617346    -0.09540
C1294       C  0.17746706  0.21496528  0.98872334     0.29340
F1295       F  0.18234148  0.21640437  0.96509320    -0.20060
H1296       H  0.13937609  0.21627141  0.98119874     0.17700
H1297       H  0.20412118  0.21071762  0.04430219     0.17710
F1298       F  0.16073785  0.21213488  0.06052809    -0.20050
C1299       C  0.01043275  0.11444780  0.99594624    -0.21490
C1300       C  0.03460176  0.11985098  0.99095075    -0.09530
C1301       C  0.05107925  0.10132643  0.98727466     0.29330
C1302       C  0.04401420  0.07816268  0.99078410    -0.21490
C1303       C  0.02021985  0.07292128  0.99702715    -0.09540
C1304       C  0.00318576  0.09122178  0.99860787     0.29340
F1305       F  0.97989713  0.08673823  0.00413891    -0.20060
H1306       H  0.99744534  0.12830853  0.99915138     0.17700
H1307       H  0.05722739  0.06424503  0.98870697     0.17710
F1308       F  0.07452511  0.10553744  0.98215135    -0.20050
C1309       C  0.03506337  0.20914683  0.12331287    -0.21490
C1310       C  0.05583460  0.21574407  0.11075625    -0.09530
C1311       C  0.07335826  0.22919902  0.12309319     0.29330
C1312       C  0.07043304  0.23476920  0.14750508    -0.21490
C1313       C  0.05019978  0.22675081  0.15996597    -0.09540
C1314       C  0.03251823  0.21413928  0.14745418     0.29340
F1315       F  0.01292486  0.20590450  0.15890630    -0.20060
H1316       H  0.02109256  0.19873612  0.11481196     0.17700
H1317       H  0.08409203  0.24497836  0.15673199     0.17710
F1318       F  0.09356466  0.23625514  0.11193599    -0.20050
C1319       C  0.99816569  0.11196387  0.10108975    -0.21490
C1320       C  0.01138890  0.10818560  0.08037477    -0.09530
C1321       C  0.02224272  0.08612231  0.07737297     0.29330
C1322       C  0.02804030  0.07269366  0.09773558    -0.21490
C1323       C  0.02176875  0.08108707  0.12022355    -0.09540
C1324       C  0.00433817  0.09899385  0.12160236     0.29340
F1325       F  0.99653240  0.10629679  0.14309943    -0.20060
H1326       H  0.98798598  0.12808443  0.10309258     0.17700
H1327       H  0.04063113  0.05815662  0.09626131     0.17710
F1328       F  0.03270773  0.08053338  0.05648326    -0.20050
C1329       C  0.15124725  0.98738995  0.12107668    -0.21490
C1330       C  0.14394621  0.99287702  0.09741830    -0.09530
C1331       C  0.12111595  0.00339961  0.09284806     0.29330
C1332       C  0.10684143  0.00996312  0.11191374    -0.21490
C1333       C  0.11518188  0.00614154  0.13564613    -0.09540
C1334       C  0.13730043  0.99419933  0.14002004     0.29340
F1335       F  0.14616116  0.98994822  0.16257795    -0.20060
H1336       H  0.16867941  0.97915993  0.12513356     0.17700
H1337       H  0.08949156  0.01844181  0.10808995     0.17710
F1338       F  0.11315576  0.00848047  0.07017760    -0.20050
C1339       C  0.16169777  0.99855299  0.22961307    -0.21490
C1340       C  0.14789946  0.01592314  0.24081679    -0.09530
C1341       C  0.15994945  0.03165906  0.25601686     0.29330
C1342       C  0.18522874  0.03060048  0.25902146    -0.21490
C1343       C  0.19913566  0.01426152  0.24649908    -0.09540
C1344       C  0.18702687  0.99786073  0.23215559     0.29340
F1345       F  0.19963603  0.98132042  0.22036302    -0.20060
H1346       H  0.15303044  0.98643102  0.21746262     0.17700
H1347       H  0.19404388  0.04325702  0.27045865     0.17710
F1348       F  0.14741133  0.04866666  0.26720295    -0.20050
C1349       C  0.02129158  0.00984297  0.12444920    -0.21490
C1350       C  0.03533163  0.99440407  0.13930228    -0.09530
C1351       C  0.04634016  0.97506882  0.12845996     0.29330
C1352       C  0.04429093  0.97202106  0.10363387    -0.21490
C1353       C  0.03139216  0.98812838  0.08865583    -0.09540
C1354       C  0.01950879  0.00692712  0.09949784     0.29340
F1355       F  0.00609682  0.02247124  0.08607029    -0.20060
H1356       H  0.01246179  0.02491619  0.13200016     0.17700
H1357       H  0.05346215  0.95715786  0.09602449     0.17710
F1358       F  0.06006186  0.95954998  0.14161560    -0.20050
C1359       C  0.07576590  0.11625796  0.25354313    -0.21490
C1360       C  0.05750663  0.10723181  0.23835574    -0.09530
C1361       C  0.03628565  0.12077916  0.23390078     0.29330
C1362       C  0.03512073  0.14395544  0.24127588    -0.21490
C1363       C  0.05451783  0.15372544  0.25413851    -0.09540
C1364       C  0.07423068  0.13933945  0.26153800     0.29340
F1365       F  0.09310663  0.14827350  0.27438024    -0.20060
H1366       H  0.09235240  0.10639458  0.25717355     0.17700
H1367       H  0.01944977  0.15460430  0.23606929     0.17710
F1368       F  0.01767735  0.11242684  0.22023464    -0.20050
C1369       C  0.15011548  0.15648409  0.22268477    -0.21490
C1370       C  0.17457753  0.14968836  0.22501512    -0.09530
C1371       C  0.18090836  0.12612386  0.22140483     0.29330
C1372       C  0.16310286  0.11004771  0.21441504    -0.21490
C1373       C  0.13873962  0.11718467  0.21089735    -0.09540
C1374       C  0.13238608  0.14053320  0.21588203     0.29340
F1375       F  0.10904525  0.14821388  0.21393860    -0.20060
H1376       H  0.14471676  0.17446164  0.22560627     0.17700
H1377       H  0.16854012  0.09219737  0.21096782     0.17710
F1378       F  0.20441925  0.11893354  0.22316094    -0.20050
C1379       C  0.22546140  0.08414223  0.13583079    -0.21490
C1380       C  0.23070704  0.08400211  0.11148988    -0.09530
C1381       C  0.24033275  0.10422572  0.10078047     0.29330
C1382       C  0.24175232  0.12489012  0.11346769    -0.21490
C1383       C  0.23454862  0.12547691  0.13716653    -0.09540
C1384       C  0.22744720  0.10472319  0.14868609     0.29340
F1385       F  0.22054492  0.10471058  0.17180277    -0.20060
H1386       H  0.21841377  0.06876172  0.14456359     0.17700
H1387       H  0.24790417  0.14056661  0.10458921     0.17710
F1388       F  0.24745864  0.10440125  0.07775046    -0.20050
C1389       C  0.13740260  0.20433592  0.16150294    -0.21490
C1390       C  0.15891006  0.21229032  0.15129499    -0.09530
C1391       C  0.16337125  0.20691848  0.12734633     0.29330
C1392       C  0.14753317  0.19309782  0.11448837    -0.21490
C1393       C  0.12574904  0.18551361  0.12413331    -0.09540
C1394       C  0.12067473  0.19133086  0.14790258     0.29340
F1395       F  0.09977663  0.18452090  0.15797276    -0.20060
H1396       H  0.13368832  0.20793809  0.18001970     0.17700
H1397       H  0.15229083  0.18887146  0.09643180     0.17710
F1398       F  0.18346769  0.21441782  0.11620952    -0.20050
C1399       C  0.28298951  0.18172499  0.12189919    -0.21490
C1400       C  0.28031004  0.20165784  0.13611479    -0.09530
C1401       C  0.28586139  0.22358406  0.12625160     0.29330
C1402       C  0.29125554  0.22571308  0.10201555    -0.21490
C1403       C  0.29035999  0.20616588  0.08708960    -0.09540
C1404       C  0.28727458  0.18397008  0.09737445     0.29340
F1405       F  0.28701817  0.16468979  0.08351062    -0.20060
H1406       H  0.27858341  0.16466831  0.12901003     0.17700
H1407       H  0.29384432  0.24297988  0.09443152     0.17710
F1408       F  0.28309382  0.24321676  0.13930579    -0.20050
C1409       C  0.28537363  0.11354796  0.21586337    -0.21490
C1410       C  0.28243090  0.12906802  0.23495628    -0.09530
C1411       C  0.28319385  0.11996733  0.25843457     0.29330
C1412       C  0.28296183  0.09583253  0.26231029    -0.21490
C1413       C  0.28206228  0.08037862  0.24291662    -0.09540
C1414       C  0.28480881  0.08946578  0.21967803     0.29340
F1415       F  0.28521553  0.07532873  0.20037858    -0.20060
H1416       H  0.28537699  0.11990635  0.19753853     0.17700
H1417       H  0.28189063  0.08937522  0.28052445     0.17710
F1418       F  0.28173613  0.13424468  0.27754826    -0.20050
C1419       C  0.16538882  0.22127961  0.27402448    -0.21490
C1420       C  0.17509940  0.23299183  0.25433913    -0.09530
C1421       C  0.15914477  0.24573045  0.23871555     0.29330
C1422       C  0.13404693  0.24400292  0.24097995    -0.21490
C1423       C  0.12442533  0.23033008  0.25930028    -0.09540
C1424       C  0.14038338  0.21985671  0.27649626     0.29340
F1425       F  0.13193247  0.20663043  0.29470322    -0.20060
H1426       H  0.17706202  0.21141777  0.28644513     0.17700
H1427       H  0.12212512  0.25290732  0.22803778     0.17710
F1428       F  0.16760008  0.25838011  0.22010670    -0.20050
C1429       C  0.88447840  0.46723865  0.27270911    -0.21490
C1430       C  0.90233453  0.45851928  0.25774567    -0.09530
C1431       C  0.89772450  0.45901034  0.23277998     0.29330
C1432       C  0.87445992  0.46448633  0.22347981    -0.21490
C1433       C  0.85560649  0.46929291  0.23900713    -0.09540
C1434       C  0.86113560  0.47210527  0.26352492     0.29340
F1435       F  0.84349896  0.47786942  0.27889458    -0.20060
H1436       H  0.88745587  0.46705711  0.29194396     0.17700
H1437       H  0.87069470  0.46276454  0.20447732     0.17710
F1438       F  0.91477637  0.45112012  0.21772903    -0.20050
C1439       C  0.02321509  0.33520111  0.28014678    -0.21490
C1440       C  0.01725367  0.35279206  0.26324072    -0.09530
C1441       C  0.01307267  0.34641114  0.23921858     0.29330
C1442       C  0.01196734  0.32286550  0.23294744    -0.21490
C1443       C  0.01514948  0.30517671  0.25041785    -0.09540
C1444       C  0.02222879  0.31163169  0.27384401     0.29340
F1445       F  0.02729649  0.29521419  0.29096512    -0.20060
H1446       H  0.02646513  0.33952880  0.29875570     0.17700
H1447       H  0.00724985  0.31855149  0.21461635     0.17710
F1448       F  0.00793104  0.36293455  0.22214663    -0.20050
C1449       C  0.95629837  0.47431211  0.36634298    -0.21490
C1450       C  0.97683033  0.46127797  0.35965927    -0.09530
C1451       C  0.99605589  0.45802694  0.37652699     0.29330
C1452       C  0.99353083  0.46531204  0.40004682    -0.21490
C1453       C  0.97222454  0.47652186  0.40709019    -0.09540
C1454       C  0.95405457  0.48202305  0.38984606     0.29340
F1455       F  0.93335029  0.49308981  0.39613247    -0.20060
H1456       H  0.94120382  0.47716962  0.35381247     0.17700
H1457       H  0.00799423  0.46148551  0.41305760     0.17710
F1458       F  0.01643737  0.44598576  0.37103067    -0.20050
C1459       C  0.97309830  0.31100727  0.35812119    -0.21490
C1460       C  0.97436827  0.31771256  0.38227058    -0.09530
C1461       C  0.97515629  0.34178418  0.38735160     0.29330
C1462       C  0.97562414  0.35842019  0.36888680    -0.21490
C1463       C  0.97523498  0.35178107  0.34477586    -0.09540
C1464       C  0.97361123  0.32779965  0.33954329     0.29340
F1465       F  0.97359237  0.32045123  0.31658245    -0.20060
H1466       H  0.97245484  0.29269200  0.35357377     0.17700
H1467       H  0.97652949  0.37669515  0.37358323     0.17710
F1468       F  0.97564580  0.34945333  0.41023740    -0.20050
C1469       C  0.86857518  0.26971340  0.48393439    -0.21490
C1470       C  0.88461735  0.25085549  0.48029434    -0.09530
C1471       C  0.87518075  0.22809090  0.48179137     0.29330
C1472       C  0.85021892  0.22448099  0.48405483    -0.21490
C1473       C  0.83370946  0.24337688  0.48488721    -0.09540
C1474       C  0.84343793  0.26612987  0.48599336     0.29340
F1475       F  0.82861336  0.28512000  0.48726400    -0.20060
H1476       H  0.87508800  0.28744551  0.48286550     0.17700
H1477       H  0.84369733  0.20672230  0.48367117     0.17710
F1478       F  0.88987086  0.20920814  0.47893392    -0.20050
C1479       C  0.01671726  0.25968377  0.37093158    -0.21490
C1480       C  0.01571157  0.24201396  0.38854420    -0.09530
C1481       C  0.01548191  0.21856410  0.38127371     0.29330
C1482       C  0.01550800  0.21310030  0.35689676    -0.21490
C1483       C  0.01461650  0.23090511  0.33935520    -0.09540
C1484       C  0.01553026  0.25427171  0.34664387     0.29340
F1485       F  0.01525806  0.27195635  0.33031114    -0.20060
H1486       H  0.01659022  0.27790525  0.37588641     0.17700
H1487       H  0.01530909  0.19494613  0.35168704     0.17710
F1488       F  0.01430004  0.20100336  0.39770377    -0.20050
C1489       C  0.95268019  0.35928544  0.47731180    -0.21490
C1490       C  0.97049071  0.34249651  0.48390116    -0.09530
C1491       C  0.99232892  0.35014824  0.49470758     0.29330
C1492       C  0.99668747  0.37405358  0.49727896    -0.21490
C1493       C  0.97953972  0.39082491  0.48896198    -0.09540
C1494       C  0.95712426  0.38309682  0.47959004     0.29340
F1495       F  0.93964105  0.39846053  0.47184946    -0.20060
H1496       H  0.93584663  0.35414532  0.46864460     0.17700
H1497       H  0.01386980  0.37942600  0.50511094     0.17710
F1498       F  0.00998068  0.33464338  0.50173911    -0.20050
C1499       C  0.91902059  0.22720921  0.33107907    -0.21490
C1500       C  0.89457023  0.22335204  0.33544644    -0.09530
C1501       C  0.88815969  0.20708239  0.35303501     0.29330
C1502       C  0.90563321  0.19953691  0.36984671    -0.21490
C1503       C  0.92839999  0.21016405  0.36986552    -0.09540
C1504       C  0.93636484  0.21992655  0.34823912     0.29340
F1505       F  0.95935405  0.22771896  0.34635167    -0.20060
H1506       H  0.92426011  0.23882036  0.31672262     0.17700
H1507       H  0.89970649  0.19018218  0.38555466     0.17710
F1508       F  0.86457566  0.20167500  0.35624439    -0.20050
C1509       C  0.90555642  0.29987046  0.26107581    -0.21490
C1510       C  0.88412708  0.30189450  0.24700637    -0.09530
C1511       C  0.88224257  0.31929151  0.22906716     0.29330
C1512       C  0.89972760  0.33654808  0.22804999    -0.21490
C1513       C  0.91910363  0.33651949  0.24480990    -0.09540
C1514       C  0.92300876  0.31706849  0.26002992     0.29340
F1515       F  0.94168136  0.31629497  0.27635100    -0.20060
H1516       H  0.90794355  0.28611033  0.27443592     0.17700
H1517       H  0.89678296  0.35119422  0.21582019     0.17710
F1518       F  0.86264866  0.32085768  0.21389507    -0.20050
C1519       C  0.80285105  0.26174282  0.37855348    -0.21490
C1520       C  0.78614594  0.26237266  0.35890459    -0.09530
C1521       C  0.76126787  0.26134600  0.36383592     0.29330
C1522       C  0.75378966  0.25818204  0.38778677    -0.21490
C1523       C  0.77104974  0.25653188  0.40694260    -0.09540
C1524       C  0.79553475  0.25886241  0.40195068     0.29340
F1525       F  0.81269801  0.25717874  0.41980714    -0.20060
H1526       H  0.82214909  0.26293855  0.37588913     0.17700
H1527       H  0.73473191  0.25610912  0.39124801     0.17710
F1528       F  0.74445833  0.26210560  0.34568191    -0.20050
C1529       C  0.78720419  0.34374740  0.22879277    -0.21490
C1530       C  0.77743227  0.33222145  0.24876587    -0.09530
C1531       C  0.76455491  0.34563323  0.26523694     0.29330
C1532       C  0.76189756  0.36974181  0.26191316    -0.21490
C1533       C  0.77218371  0.38121453  0.24239381    -0.09540
C1534       C  0.78468142  0.36804451  0.22565419     0.29340
F1535       F  0.79400725  0.37855597  0.20613727    -0.20060
H1536       H  0.79759721  0.33408727  0.21599863     0.17700
H1537       H  0.75173764  0.37961193  0.27475453     0.17710
F1538       F  0.75493188  0.33562499  0.28489520    -0.20050
C1539       C  0.89231707  0.24087839  0.22534105    -0.21490
C1540       C  0.88178244  0.22790580  0.24385933    -0.09530
C1541       C  0.89764385  0.21641836  0.26058057     0.29330
C1542       C  0.92293715  0.21920675  0.25963883    -0.21490
C1543       C  0.93333964  0.23321670  0.24184802    -0.09540
C1544       C  0.91755310  0.24359162  0.22432622     0.29340
F1545       F  0.92629552  0.25731858  0.20666850    -0.20060
H1546       H  0.88092308  0.25030660  0.21233931     0.17700
H1547       H  0.93440499  0.21048601  0.27308923     0.17710
F1548       F  0.88872226  0.20314549  0.27849435    -0.20050
C1549       C  0.83004670  0.43281643  0.34247621    -0.21490
C1550       C  0.83581539  0.44060161  0.36568629    -0.09530
C1551       C  0.86031794  0.44247083  0.37286643     0.29330
C1552       C  0.87850959  0.43593533  0.35739789    -0.21490
C1553       C  0.87278146  0.42745085  0.33442751    -0.09540
C1554       C  0.84825335  0.42637823  0.32693710     0.29340
F1555       F  0.84170306  0.41872603  0.30483554    -0.20060
H1556       H  0.81133160  0.43151090  0.33633251     0.17700
H1557       H  0.89718636  0.43725774  0.36365546     0.17710
F1558       F  0.86681187  0.44986296  0.39508481    -0.20050
C1559       C  0.85412486  0.35188459  0.45112076    -0.21490
C1560       C  0.83235062  0.34905043  0.43825226    -0.09530
C1561       C  0.82809710  0.32815228  0.42579987     0.29330
C1562       C  0.84619537  0.31106515  0.42498090    -0.21490
C1563       C  0.86859783  0.31458671  0.43659658    -0.09540
C1564       C  0.87203129  0.33465681  0.45062336     0.29340
F1565       F  0.89280725  0.33779918  0.46366201    -0.20060
H1566       H  0.85745468  0.36765358  0.46115105     0.17700
H1567       H  0.84311673  0.29566708  0.41430822     0.17710
F1568       F  0.80720308  0.32496893  0.41292112    -0.20050
C1569       C  0.77972603  0.37911789  0.34225435    -0.21490
C1570       C  0.76331718  0.37400687  0.36036436    -0.09530
C1571       C  0.76270009  0.35084059  0.36940507     0.29330
C1572       C  0.77874152  0.33374787  0.36132669    -0.21490
C1573       C  0.79532202  0.33899342  0.34358551    -0.09540
C1574       C  0.79537642  0.36178160  0.33376907     0.29340
F1575       F  0.81092841  0.36740546  0.31628293    -0.20060
H1576       H  0.78088499  0.39669288  0.33503559     0.17700
H1577       H  0.77772040  0.31613690  0.36851576     0.17710
F1578       F  0.74683931  0.34465426  0.38641935    -0.20050
C1579       C  0.73547745  0.36972892  0.47617989    -0.21490
C1580       C  0.75912195  0.37873585  0.47651408    -0.09530
C1581       C  0.77796451  0.36536087  0.48757086     0.29330
C1582       C  0.77404468  0.34201954  0.49374838    -0.21490
C1583       C  0.75108789  0.33218069  0.49030661    -0.09540
C1584       C  0.73143359  0.34657981  0.48307316     0.29340
F1585       F  0.70890933  0.33761025  0.48007753    -0.20060
H1586       H  0.72061934  0.37969772  0.46790463     0.17700
H1587       H  0.78923245  0.33127998  0.50012565     0.17710
F1588       F  0.80089283  0.37362428  0.48925610    -0.20050
C1589       C  0.77640029  0.48223829  0.33923672    -0.21490
C1590       C  0.75632585  0.47669896  0.35308911    -0.09530
C1591       C  0.73569235  0.46722602  0.34179742     0.29330
C1592       C  0.73652131  0.46037059  0.31805388    -0.21490
C1593       C  0.75773913  0.46319361  0.30504189    -0.09540
C1594       C  0.77724485  0.47538535  0.31544674     0.29340
F1595       F  0.79774052  0.47937629  0.30326960    -0.20060
H1596       H  0.79256379  0.48960336  0.34741248     0.17700
H1597       H  0.72072711  0.45211908  0.31011729     0.17710
F1598       F  0.71556093  0.46252967  0.35432453    -0.20050
C1599       C  0.86858571  0.44450883  0.47780971    -0.21490
C1600       C  0.85070081  0.46136112  0.47161689    -0.09530
C1601       C  0.85676294  0.48518344  0.47377964     0.29330
C1602       C  0.88075965  0.49171055  0.47856751    -0.21490
C1603       C  0.89923977  0.47478432  0.48173777    -0.09540
C1604       C  0.89253875  0.45107190  0.48294455     0.29340
F1605       F  0.90935220  0.43398057  0.48728252    -0.20060
H1606       H  0.86457465  0.42607072  0.47676363     0.17700
H1607       H  0.88505821  0.51011774  0.47829381     0.17710
F1608       F  0.84002029  0.50234086  0.46925031    -0.20050
C1609       C  0.73187500  0.73719044  0.07590880    -0.21490
C1610       C  0.75440390  0.72946651  0.06753888    -0.09530
C1611       C  0.77343010  0.72532090  0.08453733     0.29330
C1612       C  0.76921258  0.72655161  0.10904995    -0.21490
C1613       C  0.74609320  0.73204385  0.11743191    -0.09540
C1614       C  0.72776375  0.73865179  0.10054157     0.29340
F1615       F  0.70516787  0.74428782  0.10767620    -0.20060
H1616       H  0.71698473  0.74105834  0.06341200     0.17700
H1617       H  0.78367659  0.72137106  0.12157310     0.17710
F1618       F  0.79582785  0.71857465  0.07771247    -0.20050
C1619       C  0.72355161  0.59573612  0.22431852    -0.21490
C1620       C  0.74116358  0.61187962  0.21752663    -0.09530
C1621       C  0.76525660  0.60386853  0.21571308     0.29330
C1622       C  0.77067511  0.57997883  0.21644604    -0.21490
C1623       C  0.75239490  0.56343832  0.21972273    -0.09540
C1624       C  0.72905433  0.57168173  0.22540929     0.29340
F1625       F  0.71113239  0.55654403  0.23048121    -0.20060
H1626       H  0.70492845  0.60138580  0.22621067     0.17700
H1627       H  0.78912153  0.57444306  0.21327971     0.17710
F1628       F  0.78309606  0.61899729  0.21021679    -0.20050
C1629       C  0.63405326  0.67843163  0.23131938    -0.21490
C1630       C  0.65076685  0.69681483  0.22931877    -0.09530
C1631       C  0.64366944  0.71915469  0.23678587     0.29330
C1632       C  0.61969563  0.72347550  0.24293505    -0.21490
C1633       C  0.60214527  0.70577969  0.24162225    -0.09540
C1634       C  0.60991297  0.68283692  0.23717770     0.29340
F1635       F  0.59388295  0.66505208  0.23627505    -0.20060
H1636       H  0.63899504  0.66088976  0.22621367     0.17700
H1637       H  0.61452906  0.74122836  0.24715098     0.17710
F1638       F  0.65922493  0.73733416  0.23623216    -0.20050
C1639       C  0.62531828  0.72659751  0.10718698    -0.21490
C1640       C  0.62501996  0.71519706  0.08514674    -0.09530
C1641       C  0.64431994  0.69972423  0.08017652     0.29330
C1642       C  0.66305741  0.69551891  0.09723165    -0.21490
C1643       C  0.66288469  0.70649077  0.11955570    -0.09540
C1644       C  0.64391645  0.72244511  0.12412999     0.29340
F1645       F  0.64330707  0.73439458  0.14492725    -0.20060
H1646       H  0.61093652  0.73872763  0.11150830     0.17700
H1647       H  0.67748996  0.68336785  0.09310886     0.17710
F1648       F  0.64479876  0.68806861  0.05920703    -0.20050
C1649       C  0.61720948  0.73422964  0.98013071    -0.21490
C1650       C  0.61052010  0.74438591  0.00183405    -0.09530
C1651       C  0.62892009  0.75342048  0.01701832     0.29330
C1652       C  0.65329094  0.75019887  0.01166770    -0.21490
C1653       C  0.65979373  0.73876387  0.99078763    -0.09540
C1654       C  0.64163828  0.73166044  0.97451579     0.29340
F1655       F  0.64756884  0.72102493  0.95389457    -0.20060
H1656       H  0.60356458  0.72688547  0.96822765     0.17700
H1657       H  0.66717663  0.75650520  0.02397387     0.17710
F1658       F  0.62360411  0.76356435  0.03807522    -0.20050
C1659       C  0.51808380  0.69950123  0.13351682    -0.21490
C1660       C  0.52022712  0.71972403  0.11911983    -0.09530
C1661       C  0.52118898  0.74153911  0.13041602     0.29330
C1662       C  0.52253048  0.74277456  0.15536589    -0.21490
C1663       C  0.52286987  0.72238796  0.16972791    -0.09540
C1664       C  0.51945714  0.70073483  0.15851217     0.29340
F1665       F  0.51903032  0.68055374  0.17148168    -0.20060
H1666       H  0.51733537  0.68239236  0.12549503     0.17700
H1667       H  0.52431015  0.75980347  0.16340135     0.17710
F1668       F  0.52250529  0.76164867  0.11743002    -0.20050
C1669       C  0.49998521  0.62018663  0.03699344    -0.21490
C1670       C  0.52258317  0.62761138  0.02877690    -0.09530
C1671       C  0.53694167  0.61113088  0.01640805     0.29330
C1672       C  0.52949620  0.58837336  0.01320914    -0.21490
C1673       C  0.50718349  0.58100765  0.02105874    -0.09540
C1674       C  0.49202433  0.59711475  0.03262806     0.29340
F1675       F  0.47000563  0.59040104  0.04019924    -0.20060
H1676       H  0.48859369  0.63212099  0.04664192     0.17700
H1677       H  0.54125947  0.57639657  0.00396333     0.17710
F1678       F  0.55891573  0.61643793  0.00767268    -0.20050
C1679       C  0.66290488  0.63677061  0.99867950    -0.21490
C1680       C  0.65195434  0.61562772  0.99221522    -0.09530
C1681       C  0.63147378  0.61607790  0.97683999     0.29330
C1682       C  0.61935723  0.63726953  0.97254925    -0.21490
C1683       C  0.62610861  0.65656797  0.98642486    -0.09540
C1684       C  0.65015801  0.65770124  0.99490154     0.29340
F1685       F  0.65830843  0.67724900  0.00584638    -0.20060
H1686       H  0.67933069  0.63686014  0.00974037     0.17700
H1687       H  0.60146577  0.63684542  0.96409374     0.17710
F1688       F  0.62146785  0.59596522  0.96888104    -0.20050
C1689       C  0.76178812  0.59698768  0.08541837    -0.21490
C1690       C  0.74161182  0.59972582  0.06980019    -0.09530
C1691       C  0.73098114  0.62206266  0.06630772     0.29330
C1692       C  0.73814907  0.64031239  0.08088693    -0.21490
C1693       C  0.75551310  0.63627939  0.09923284    -0.09540
C1694       C  0.76889785  0.61526941  0.09995592     0.29340
F1695       F  0.78679262  0.61145593  0.11675387    -0.20060
H1696       H  0.77117297  0.58033470  0.08747593     0.17700
H1697       H  0.72790452  0.65656920  0.07978733     0.17710
F1698       F  0.71240297  0.62595145  0.05026561    -0.20050
C1699       C  0.72497382  0.61494451  0.98432034    -0.21490
C1700       C  0.74222134  0.59968964  0.99549941    -0.09530
C1701       C  0.76274468  0.60966632  0.00671633     0.29330
C1702       C  0.76503060  0.63394170  0.00799962    -0.21490
C1703       C  0.74720354  0.64926005  0.99788667    -0.09540
C1704       C  0.72732843  0.63935584  0.98551244     0.29340
F1705       F  0.71009088  0.65309213  0.97454730    -0.20060
H1706       H  0.70894665  0.60800022  0.97549732     0.17700
H1707       H  0.78079275  0.64073002  0.01743688     0.17710
F1708       F  0.78006178  0.59602477  0.01777286    -0.20050
C1709       C  0.76412470  0.49430218  0.10551049    -0.21490
C1710       C  0.73925451  0.49248725  0.09938651    -0.09530
C1711       C  0.72351534  0.48539934  0.11752679     0.29330
C1712       C  0.73202417  0.48305144  0.14132459    -0.21490
C1713       C  0.75637787  0.48758950  0.14781021    -0.09540
C1714       C  0.77262453  0.49197796  0.12933944     0.29340
F1715       F  0.79643909  0.49579685  0.13434113    -0.20060
H1716       H  0.77688139  0.49946717  0.09213150     0.17700
H1717       H  0.71906228  0.47898394  0.15491258     0.17710
F1718       F  0.69947371  0.48256973  0.11279161    -0.20050
C1719       C  0.61635683  0.50272967  0.00166860    -0.21490
C1720       C  0.63089183  0.49806613  0.02232408    -0.09530
C1721       C  0.62113166  0.48441644  0.04076813     0.29330
C1722       C  0.59648079  0.47851104  0.03981514    -0.21490
C1723       C  0.58130268  0.48633654  0.02065650    -0.09540
C1724       C  0.59173805  0.49737983  0.00100358     0.29340
F1725       F  0.57786245  0.50411271  0.98165008    -0.20060
H1726       H  0.62341397  0.51294969  0.98704579     0.17700
H1727       H  0.58886196  0.46950082  0.05494636     0.17710
F1728       F  0.63446398  0.47926178  0.06094175    -0.20050
C1729       C  0.55619892  0.62030135  0.15424181    -0.21490
C1730       C  0.54484109  0.59866271  0.15197753    -0.09530
C1731       C  0.53454130  0.59244857  0.12960235     0.29330
C1732       C  0.53874255  0.60603068  0.10932338    -0.21490
C1733       C  0.55213453  0.62649963  0.11139152    -0.09540
C1734       C  0.55974891  0.63419086  0.13417672     0.29340
F1735       F  0.57205166  0.65443240  0.13692852    -0.20060
H1736       H  0.56392088  0.62581334  0.17124573     0.17700
H1737       H  0.53158137  0.60058424  0.09206045     0.17710
F1738       F  0.52090287  0.57307161  0.12716167    -0.20050
C1739       C  0.64416083  0.51872060  0.12868352    -0.21490
C1740       C  0.63231272  0.52192126  0.10629282    -0.09530
C1741       C  0.60754637  0.51609136  0.10409633     0.29330
C1742       C  0.59499948  0.50803191  0.12400944    -0.21490
C1743       C  0.60665506  0.50584859  0.14660961    -0.09540
C1744       C  0.63157890  0.51093964  0.14858748     0.29340
F1745       F  0.64390586  0.50862530  0.16982637    -0.20060
H1746       H  0.66320284  0.52274010  0.13100094     0.17700
H1747       H  0.57591300  0.50417055  0.12185122     0.17710
F1748       F  0.59530845  0.51823108  0.08277968    -0.20050
C1749       C  0.62921547  0.58952283  0.21310664    -0.21490
C1750       C  0.63631184  0.56609923  0.21674581    -0.09530
C1751       C  0.65762804  0.55805329  0.20610488     0.29330
C1752       C  0.67181003  0.57353526  0.19284490    -0.21490
C1753       C  0.66477394  0.59714383  0.18968687    -0.09540
C1754       C  0.64278283  0.60465903  0.19945202     0.29340
F1755       F  0.63422432  0.62682133  0.19617930    -0.20060
H1756       H  0.61265798  0.59629149  0.22047095     0.17700
H1757       H  0.68855526  0.56716168  0.18552239     0.17710
F1758       F  0.66498555  0.53546126  0.20885938    -0.20050
C1759       C  0.63720455  0.46332851  0.20768924    -0.21490
C1760       C  0.62323397  0.46471768  0.22826385    -0.09530
C1761       C  0.63477403  0.46750364  0.25068995     0.29330
C1762       C  0.65954253  0.47148553  0.25211188    -0.21490
C1763       C  0.67292665  0.47296933  0.23121237    -0.09540
C1764       C  0.66191429  0.46788625  0.20906124     0.29340
F1765       F  0.67491379  0.46767146  0.18881121    -0.20060
H1766       H  0.62863230  0.46132330  0.19018055     0.17700
H1767       H  0.66810555  0.47446041  0.26946413     0.17710
F1768       F  0.62169650  0.46872745  0.27085096    -0.20050
C1769       C  0.50738397  0.59665170  0.21719507    -0.21490
C1770       C  0.51748604  0.58162853  0.23495807    -0.09530
C1771       C  0.52080768  0.59012830  0.25836022     0.29330
C1772       C  0.51672717  0.61378002  0.26309486    -0.21490
C1773       C  0.50990037  0.62928319  0.24446394    -0.09540
C1774       C  0.50420521  0.62044056  0.22172095     0.29340
F1775       F  0.49663583  0.63500560  0.20361584    -0.20060
H1776       H  0.50477016  0.59065996  0.19902065     0.17700
H1777       H  0.52064303  0.62028700  0.28087662     0.17710
F1778       F  0.53048622  0.57610230  0.27598697    -0.20050
C1779       C  0.49672433  0.47917785  0.13150465    -0.21490
C1780       C  0.50924002  0.49880118  0.13990899    -0.09530
C1781       C  0.51974396  0.51400394  0.12337477     0.29330
C1782       C  0.51736674  0.51016204  0.09909198    -0.21490
C1783       C  0.50548405  0.49039764  0.09050874    -0.09540
C1784       C  0.49484190  0.47492341  0.10685495     0.29340
F1785       F  0.48319718  0.45556661  0.09911633    -0.20060
H1786       H  0.48936768  0.46672309  0.14401091     0.17700
H1787       H  0.52652832  0.52187719  0.08705239     0.17710
F1788       F  0.53528866  0.53073741  0.13067002    -0.20050
C1789       C  0.03628929  0.62684614  0.74886400    -0.21490
C1790       C  0.01677436  0.61187398  0.74361520    -0.09530
C1791       C  0.99370592  0.62229700  0.73963902     0.29330
C1792       C  0.99109265  0.64651077  0.73665081    -0.21490
C1793       C  0.01122003  0.66138024  0.73807856    -0.09540
C1794       C  0.03363504  0.65136236  0.74597154     0.29340
F1795       F  0.05332101  0.66499026  0.74952720    -0.20060
H1796       H  0.05419499  0.61955699  0.75260144     0.17700
H1797       H  0.97324890  0.65342713  0.73185684     0.17710
F1798       F  0.97392414  0.60880774  0.73580394    -0.20050
C1799       C  0.14542924  0.48932779  0.74299624    -0.21490
C1800       C  0.16276612  0.50713754  0.74134615    -0.09530
C1801       C  0.15441978  0.53045881  0.74317300     0.29330
C1802       C  0.12948403  0.53564716  0.74466566    -0.21490
C1803       C  0.11196226  0.51787752  0.74454952    -0.09540
C1804       C  0.12051951  0.49450128  0.74467062     0.29340
F1805       F  0.10478283  0.47646773  0.74489625    -0.20060
H1806       H  0.15104586  0.47118093  0.74216289     0.17700
H1807       H  0.12382969  0.55382439  0.74448211     0.17710
F1808       F  0.17012787  0.54848118  0.74216307    -0.20050
C1809       C  0.99390236  0.47234547  0.63551118    -0.21490
C1810       C  0.00849010  0.49136785  0.64207022    -0.09530
C1811       C  0.01733225  0.50547390  0.62325826     0.29330
C1812       C  0.01146042  0.50143837  0.59950900    -0.21490
C1813       C  0.99730555  0.48274276  0.59295317    -0.09540
C1814       C  0.98865706  0.46778005  0.61106787     0.29340
F1815       F  0.97497143  0.44907187  0.60516781    -0.20060
H1816       H  0.98666291  0.46107520  0.64918844     0.17700
H1817       H  0.01907130  0.51264036  0.58592372     0.17710
F1818       F  0.03227802  0.52334798  0.62670152    -0.20050
C1819       C  0.99311483  0.59041820  0.58794067    -0.21490
C1820       C  0.98380355  0.61298064  0.59083077    -0.09530
C1821       C  0.96881845  0.61753214  0.61012485     0.29330
C1822       C  0.96834651  0.60165762  0.62917690    -0.21490
C1823       C  0.98281230  0.58135249  0.62883859    -0.09540
C1824       C  0.99293347  0.57463627  0.60704796     0.29340
F1825       F  0.00622451  0.55480336  0.60533881    -0.20060
H1826       H  0.00417433  0.58636245  0.57278679     0.17700
H1827       H  0.95944042  0.60677847  0.64534185     0.17710
F1828       F  0.95797808  0.63876570  0.61228226    -0.20050
C1829       C  0.04229985  0.73418909  0.64288488    -0.21490
C1830       C  0.01901431  0.73187554  0.65236492    -0.09530
C1831       C  0.99913772  0.73095473  0.63581961     0.29330
C1832       C  0.00278368  0.72859643  0.61133056    -0.21490
C1833       C  0.02619538  0.72682597  0.60232327    -0.09540
C1834       C  0.04576973  0.73217697  0.61796908     0.29340
F1835       F  0.06842695  0.73351213  0.60943985    -0.20060
H1836       H  0.05790962  0.73636299  0.65476847     0.17700
H1837       H  0.98720219  0.72515992  0.59973216     0.17710
F1838       F  0.97593030  0.73083259  0.64324612    -0.20050
C1839       C  0.12204270  0.72216495  0.51828210    -0.21490
C1840       C  0.10403946  0.71623408  0.50111715    -0.09530
C1841       C  0.11099815  0.71377452  0.47717537     0.29330
C1842       C  0.13548392  0.71493718  0.47123818    -0.21490
C1843       C  0.15369874  0.71871404  0.48885314    -0.09540
C1844       C  0.14649325  0.72332621  0.51235515     0.29340
F1845       F  0.16309396  0.72757822  0.53008839    -0.20060
H1846       H  0.11750671  0.72427686  0.53685549     0.17700
H1847       H  0.14023616  0.71190858  0.45287103     0.17710
F1848       F  0.09448824  0.70851775  0.45968022    -0.20050
C1849       C  0.97032735  0.61015304  0.50885418    -0.21490
C1850       C  0.99173518  0.61733247  0.49787724    -0.09530
C1851       C  0.00745499  0.59990484  0.48928291     0.29330
C1852       C  0.00266853  0.57616846  0.49314846    -0.21490
C1853       C  0.98174821  0.56914416  0.50482504    -0.09540
C1854       C  0.96514070  0.58634070  0.51189027     0.29340
F1855       F  0.94441378  0.58012713  0.52266164    -0.20060
H1856       H  0.95799686  0.62302690  0.51590927     0.17700
H1857       H  0.01532209  0.56316823  0.48685558     0.17710
F1858       F  0.02824527  0.60568511  0.47839070    -0.20050
C1859       C  0.10640213  0.59160923  0.54116607    -0.21490
C1860       C  0.11364067  0.58129173  0.52000910    -0.09530
C1861       C  0.10327582  0.58869943  0.49797253     0.29330
C1862       C  0.08565918  0.60640936  0.49731647    -0.21490
C1863       C  0.07835413  0.61671638  0.51861258    -0.09540
C1864       C  0.08912779  0.60940406  0.54051613     0.29340
F1865       F  0.08412804  0.62014694  0.56120459    -0.20060
H1866       H  0.11468154  0.58638406  0.55819991     0.17700
H1867       H  0.07766186  0.61203283  0.48026619     0.17710
F1868       F  0.10984692  0.57852491  0.47730216    -0.20050
C1869       C  0.09580130  0.53144920  0.60926127    -0.21490
C1870       C  0.10773157  0.50999456  0.60659366    -0.09530
C1871       C  0.10690283  0.49276111  0.62448644     0.29330
C1872       C  0.09487943  0.49733672  0.64541469    -0.21490
C1873       C  0.08379647  0.51918734  0.64856740    -0.09540
C1874       C  0.08409874  0.53618959  0.63029903     0.29340
F1875       F  0.07352505  0.55748174  0.63304219    -0.20060
H1876       H  0.09726848  0.54520949  0.59590240     0.17700
H1877       H  0.09396310  0.48375303  0.65900958     0.17710
F1878       F  0.11868647  0.47201814  0.62206551    -0.20050
C1879       C  0.23120029  0.49661169  0.64251020    -0.21490
C1880       C  0.23300413  0.51414463  0.65984245    -0.09530
C1881       C  0.23561638  0.53744388  0.65179877     0.29330
C1882       C  0.23302023  0.54312314  0.62722915    -0.21490
C1883       C  0.22778379  0.52574021  0.61034524    -0.09540
C1884       C  0.22899335  0.50224358  0.61814439     0.29340
F1885       F  0.22409202  0.48484584  0.60250194    -0.20060
H1886       H  0.23012626  0.47841272  0.64784167     0.17700
H1887       H  0.23217718  0.56134868  0.62184388     0.17710
F1888       F  0.23871685  0.55494928  0.66768342    -0.20050
C1889       C  0.22993010  0.61669865  0.52098891    -0.21490
C1890       C  0.22120354  0.59961548  0.50511622    -0.09530
C1891       C  0.21888170  0.60565845  0.48060145     0.29330
C1892       C  0.22244396  0.62874636  0.47286383    -0.21490
C1893       C  0.22847694  0.64638235  0.48923944    -0.09540
C1894       C  0.23346373  0.63974159  0.51327074     0.29340
F1895       F  0.24031191  0.65571668  0.52978086    -0.20060
H1896       H  0.23226319  0.61275235  0.53990998     0.17700
H1897       H  0.21901957  0.63303985  0.45415493     0.17710
F1898       F  0.21123976  0.58982798  0.46426527    -0.20050
C1899       C  0.09330616  0.50922351  0.49668850    -0.21490
C1900       C  0.11199568  0.49445428  0.50578422    -0.09530
C1901       C  0.10557681  0.47275767  0.51581290     0.29330
C1902       C  0.08113448  0.46676720  0.51809606    -0.21490
C1903       C  0.06236553  0.48235315  0.51079964    -0.09540
C1904       C  0.06882844  0.50340315  0.49924670     0.29340
F1905       F  0.05157516  0.51888722  0.49118392    -0.20060
H1906       H  0.09756690  0.52619938  0.48925391     0.17700
H1907       H  0.07695502  0.45031805  0.52671082     0.17710
F1908       F  0.12297946  0.45784458  0.52468526    -0.20050
C1909       C  0.12157865  0.71605714  0.64035902    -0.21490
C1910       C  0.14252669  0.72143992  0.62762877    -0.09530
C1911       C  0.14488714  0.71252361  0.60454010     0.29330
C1912       C  0.12629546  0.69931911  0.59422222    -0.21490
C1913       C  0.10522856  0.69415779  0.60692592    -0.09540
C1914       C  0.10363350  0.70184097  0.63057159     0.29340
F1915       F  0.08432673  0.69645318  0.64401209    -0.20060
H1916       H  0.11903051  0.72250308  0.65819417     0.17700
H1917       H  0.12825881  0.69355463  0.57599992     0.17710
F1918       F  0.16491748  0.71691997  0.59176252    -0.20050
C1919       C  0.20859247  0.62544118  0.65103211    -0.21490
C1920       C  0.20904533  0.64739145  0.63951250    -0.09530
C1921       C  0.20156134  0.64905919  0.61527351     0.29330
C1922       C  0.19427154  0.62910654  0.60287458    -0.21490
C1923       C  0.19378609  0.60709372  0.61438066    -0.09540
C1924       C  0.20080365  0.60558506  0.63879233     0.29340
F1925       F  0.20028691  0.58496336  0.65095163    -0.20060
H1926       H  0.21393138  0.62367141  0.66976416     0.17700
H1927       H  0.18886457  0.63097628  0.58417792     0.17710
F1928       F  0.20167862  0.66985904  0.60336226    -0.20050
C1929       C  0.09933521  0.66472293  0.70692597    -0.21490
C1930       C  0.12328654  0.65840877  0.71341723    -0.09530
C1931       C  0.12862702  0.63534612  0.72086557     0.29330
C1932       C  0.11067727  0.61852650  0.71960263    -0.21490
C1933       C  0.08727327  0.62439987  0.71076259    -0.09540
C1934       C  0.08150871  0.64788917  0.70528172     0.29340
F1935       F  0.05912138  0.65454128  0.69692300    -0.20060
H1936       H  0.09466954  0.68241473  0.70127674     0.17700
H1937       H  0.11545371  0.60069082  0.72460986     0.17710
F1938       F  0.15138100  0.62874284  0.72818450    -0.20050
C1939       C  0.14324736  0.75494914  0.73939141    -0.21490
C1940       C  0.15295784  0.73223425  0.74260413    -0.09530
C1941       C  0.13829779  0.71505555  0.75289949     0.29330
C1942       C  0.11323818  0.71881495  0.75370189    -0.21490
C1943       C  0.10304330  0.74035198  0.74632356    -0.09540
C1944       C  0.11835454  0.75899041  0.74110830     0.29340
F1945       F  0.10900774  0.78037224  0.73511940    -0.20060
H1946       H  0.15426524  0.76870499  0.73208359     0.17700
H1947       H  0.10170059  0.70463619  0.75914535     0.17710
F1948       F  0.14737778  0.69344972  0.75834334    -0.20050
C1949       C  0.25316867  0.62473291  0.72291729    -0.21490
C1950       C  0.23858002  0.63915707  0.73688040    -0.09530
C1951       C  0.22657297  0.62947808  0.75639548     0.29330
C1952       C  0.22897275  0.60555985  0.76152839    -0.21490
C1953       C  0.24242582  0.59113728  0.74657484    -0.09540
C1954       C  0.25474531  0.60084580  0.72744653     0.29340
F1955       F  0.26803967  0.58713849  0.71298666    -0.20060
H1956       H  0.26195811  0.63168123  0.70731379     0.17700
H1957       H  0.21975834  0.59815153  0.77664292     0.17710
F1958       F  0.21211904  0.64297292  0.76994010    -0.20050
C1959       C  0.25469553  0.70654875  0.60561638    -0.21490
C1960       C  0.25088351  0.72610809  0.62000243    -0.09530
C1961       C  0.24559738  0.74794908  0.60919629     0.29330
C1962       C  0.24302999  0.74980793  0.58440176    -0.21490
C1963       C  0.24498123  0.72984189  0.57034528    -0.09540
C1964       C  0.25142676  0.70831001  0.58095541     0.29340
F1965       F  0.25465535  0.68903422  0.56746470    -0.20060
H1966       H  0.25842577  0.68946654  0.61351807     0.17700
H1967       H  0.23873887  0.76665006  0.57620274     0.17710
F1968       F  0.24174330  0.76715430  0.62263411    -0.20050
C1969       C  0.47989320  0.84557279  0.23710266    -0.21490
C1970       C  0.49941159  0.85900776  0.24586953    -0.09530
C1971       C  0.51997660  0.84722780  0.25575456     0.29330
C1972       C  0.52070481  0.82281439  0.25710113    -0.21490
C1973       C  0.50093828  0.80959913  0.24902485    -0.09540
C1974       C  0.48064742  0.82111865  0.23863408     0.29340
F1975       F  0.46185761  0.80872873  0.22943894    -0.20060
H1976       H  0.46364429  0.85399306  0.22969689     0.17700
H1977       H  0.53688888  0.81412411  0.26434220     0.17710
F1978       F  0.53928453  0.85924156  0.26446481    -0.20050
C1979       C  0.37430669  0.97451144  0.22842712    -0.21490
C1980       C  0.35690664  0.97485492  0.24632907    -0.09530
C1981       C  0.36485550  0.97714789  0.27030638     0.29330
C1982       C  0.38956189  0.97597022  0.27630303    -0.21490
C1983       C  0.40679545  0.97220621  0.25861640    -0.09540
C1984       C  0.39901642  0.97328355  0.23442297     0.29340
F1985       F  0.41496249  0.97088781  0.21655022    -0.20060
H1986       H  0.36882819  0.97365330  0.20971663     0.17700
H1987       H  0.39492523  0.97580573  0.29508552     0.17710
F1988       F  0.34884300  0.97902711  0.28817756    -0.20050
C1989       C  0.47489258  0.98442045  0.36484913    -0.21490
C1990       C  0.49495084  0.97935538  0.35068606    -0.09530
C1991       C  0.51820279  0.97952514  0.36185731     0.29330
C1992       C  0.52086927  0.98064845  0.38679519    -0.21490
C1993       C  0.50049185  0.98154305  0.40122107    -0.09540
C1994       C  0.47749760  0.98474700  0.38997752     0.29340
F1995       F  0.45747015  0.98736975  0.40326498    -0.20060
H1996       H  0.45680995  0.98504911  0.35683408     0.17700
H1997       H  0.53888684  0.97922277  0.39490358     0.17710
F1998       F  0.53827060  0.97588145  0.34884527    -0.20050
C1999       C  0.41564584  0.93146489  0.41266389    -0.21490
C2000       C  0.39109104  0.93211086  0.40527972    -0.09530
C2001       C  0.38487410  0.93855603  0.38153423     0.29330
C2002       C  0.40295473  0.94223388  0.36516674    -0.21490
C2003       C  0.42750139  0.93930714  0.37201808    -0.09540
C2004       C  0.43375148  0.93493588  0.39623066     0.29340
F2005       F  0.45721066  0.93244246  0.40387187    -0.20060
H2006       H  0.42099568  0.92712845  0.43098010     0.17700
H2007       H  0.39757448  0.94610977  0.34675379     0.17710
F2008       F  0.36142321  0.94032290  0.37371562    -0.20050
C2009       C  0.27283223  0.81403608  0.50257049    -0.21490
C2010       C  0.26675380  0.80024877  0.48256810    -0.09530
C2011       C  0.25560528  0.81142786  0.46249040     0.29330
C2012       C  0.25219706  0.83583304  0.46206524    -0.21490
C2013       C  0.26007540  0.84967575  0.48145029    -0.09540
C2014       C  0.26958423  0.83827092  0.50207644     0.29340
F2015       F  0.27704381  0.85067220  0.52140858    -0.20060
H2016       H  0.28075788  0.80614841  0.51869976     0.17700
H2017       H  0.24495390  0.84402916  0.44580582     0.17710
F2018       F  0.24888154  0.79904079  0.44291960    -0.20050
C2019       C  0.25522812  0.96700868  0.34704875    -0.21490
C2020       C  0.27559913  0.97023518  0.33288696    -0.09530
C2021       C  0.29873091  0.96911946  0.34387796     0.29330
C2022       C  0.30148027  0.96385012  0.36827038    -0.21490
C2023       C  0.28131446  0.95876922  0.38230080    -0.09540
C2024       C  0.25797640  0.96097341  0.37143775     0.29340
F2025       F  0.23785858  0.95641880  0.38400982    -0.20060
H2026       H  0.23717817  0.96830609  0.33899819     0.17700
H2027       H  0.31969906  0.96258259  0.37585992     0.17710
F2028       F  0.31877073  0.97324641  0.33102821    -0.20050
C2029       C  0.37536350  0.96732539  0.50048750    -0.21490
C2030       C  0.36719224  0.96609844  0.47654905    -0.09530
C2031       C  0.38318613  0.97310787  0.45866848     0.29330
C2032       C  0.40805778  0.97547295  0.46423556    -0.21490
C2033       C  0.41697777  0.97220484  0.48790178    -0.09540
C2034       C  0.39993189  0.97035347  0.50620338     0.29340
F2035       F  0.40710432  0.96911445  0.52960600    -0.20060
H2036       H  0.36331661  0.96272376  0.51472715     0.17700
H2037       H  0.42045237  0.97802999  0.44978650     0.17710
F2038       F  0.37551705  0.97444053  0.43543654    -0.20050
C2039       C  0.52348405  0.83243666  0.36768931    -0.21490
C2040       C  0.50626325  0.83872986  0.38471167    -0.09530
C2041       C  0.49812296  0.86186830  0.38582958     0.29330
C2042       C  0.50488805  0.87767453  0.36833224    -0.21490
C2043       C  0.51930704  0.87045165  0.34934626    -0.09540
C2044       C  0.52958264  0.84811240  0.34971698     0.29340
F2045       F  0.54416078  0.84107596  0.33197520    -0.20060
H2046       H  0.53044016  0.81470069  0.36690377     0.17700
H2047       H  0.49682652  0.89485833  0.36865766     0.17710
F2048       F  0.48136099  0.86851312  0.40180451    -0.20050
C2049       C  0.38074923  0.81439284  0.46377100    -0.21490
C2050       C  0.40366404  0.82398284  0.45949108    -0.09530
C2051       C  0.40765815  0.84748914  0.46473522     0.29330
C2052       C  0.38972676  0.86058541  0.47567853    -0.21490
C2053       C  0.36695229  0.85092239  0.48054627    -0.09540
C2054       C  0.36243688  0.82777193  0.47391978     0.29340
F2055       F  0.34069075  0.81783652  0.47796332    -0.20060
H2056       H  0.37734640  0.79616577  0.46008926     0.17700
H2057       H  0.39386957  0.87840279  0.48034126     0.17710
F2058       F  0.42939440  0.85742074  0.46074838    -0.20050
C2059       C  0.46130623  0.71180876  0.36330727    -0.21490
C2060       C  0.48040378  0.72371247  0.37478194    -0.09530
C2061       C  0.50140273  0.72823369  0.36165510     0.29330
C2062       C  0.50170459  0.72425863  0.33702750    -0.21490
C2063       C  0.48157691  0.71474001  0.32504302    -0.09540
C2064       C  0.46187832  0.70727923  0.33866319     0.29340
F2065       F  0.44219245  0.69759808  0.32780826    -0.20060
H2066       H  0.44486120  0.70822510  0.37274109     0.17700
H2067       H  0.51742176  0.72939583  0.32714009     0.17710
F2068       F  0.52074862  0.73886592  0.37216058    -0.20050
C2069       C  0.36149354  0.72515289  0.49638541    -0.21490
C2070       C  0.34449601  0.72369314  0.47709103    -0.09530
C2071       C  0.35334889  0.72068430  0.45400819     0.29330
C2072       C  0.37834943  0.72127851  0.45025357    -0.21490
C2073       C  0.39515307  0.72542558  0.46925913    -0.09540
C2074       C  0.38641907  0.72610896  0.49259369     0.29340
F2075       F  0.40168318  0.72950258  0.51165275    -0.20060
H2076       H  0.35551445  0.72687554  0.51455803     0.17700
H2077       H  0.38430794  0.72044806  0.43200053     0.17710
F2078       F  0.33794898  0.71842365  0.43485070    -0.20050
C2079       C  0.47044318  0.85218370  0.49717257    -0.21490
C2080       C  0.48562587  0.84122553  0.48087032    -0.09530
C2081       C  0.50044768  0.85570796  0.46677691     0.29330
C2082       C  0.49962619  0.88026690  0.46880706    -0.21490
C2083       C  0.48418009  0.89110603  0.48497569    -0.09540
C2084       C  0.46955484  0.87657047  0.49912873     0.29340
F2085       F  0.45372309  0.88593985  0.51460757    -0.20060
H2086       H  0.45832711  0.84190415  0.50784835     0.17700
H2087       H  0.51139654  0.89077738  0.45798582     0.17710
F2088       F  0.51553470  0.84625136  0.45068011    -0.20050
C2089       C  0.37977355  0.74582961  0.32276937    -0.21490
C2090       C  0.35722680  0.74311440  0.33342183    -0.09530
C2091       C  0.35609470  0.74059310  0.35829119     0.29330
C2092       C  0.37695764  0.74288903  0.37241898    -0.21490
C2093       C  0.39921330  0.74818129  0.36203434    -0.09540
C2094       C  0.40071891  0.74847945  0.33695578     0.29340
F2095       F  0.42192830  0.75282953  0.32611698    -0.20060
H2096       H  0.38092976  0.74769265  0.30352687     0.17700
H2097       H  0.37524167  0.74195203  0.39164504     0.17710
F2098       F  0.33464406  0.73714776  0.36903302    -0.20050
C2099       C  0.26056230  0.83378018  0.37766576    -0.21490
C2100       C  0.27901916  0.81714400  0.37524019    -0.09530
C2101       C  0.29834028  0.81597107  0.39210496     0.29330
C2102       C  0.30076971  0.83343118  0.40921429    -0.21490
C2103       C  0.28399360  0.85203217  0.40932612    -0.09540
C2104       C  0.26300137  0.85121524  0.39450729     0.29340
F2105       F  0.24538323  0.86790818  0.39541694    -0.20060
H2106       H  0.24555297  0.83478527  0.36475939     0.17700
H2107       H  0.31660696  0.83335083  0.42110603     0.17710
F2108       F  0.31647013  0.79997772  0.38993803    -0.20050
C2109       C  0.40404500  0.83642572  0.28910253    -0.21490
C2110       C  0.38063977  0.84647356  0.28848859    -0.09530
C2111       C  0.37810741  0.87069158  0.28446848     0.29330
C2112       C  0.39846290  0.88447678  0.28136524    -0.21490
C2113       C  0.42193515  0.87463638  0.28227341    -0.09540
C2114       C  0.42458359  0.85038114  0.28623106     0.29340
F2115       F  0.44685659  0.84007881  0.28674558    -0.20060
H2116       H  0.40645301  0.81781747  0.29217159     0.17700
H2117       H  0.39577802  0.90304857  0.27820227     0.17710
F2118       F  0.35585821  0.88107530  0.28298128    -0.20050
C2119       C  0.38525069  0.76704199  0.23610145    -0.21490
C2120       C  0.36582204  0.75135005  0.23677293    -0.09530
C2121       C  0.37104778  0.72722667  0.23611851     0.29330
C2122       C  0.39500625  0.71920895  0.23838888    -0.21490
C2123       C  0.41421959  0.73497731  0.24116466    -0.09540
C2124       C  0.40915755  0.75904648  0.23862090     0.29340
F2125       F  0.42702841  0.77506467  0.24017682    -0.20060
H2126       H  0.38196639  0.78573105  0.23620951     0.17700
H2127       H  0.39831204  0.70053723  0.23933068     0.17710
F2128       F  0.35306105  0.71125279  0.23585605    -0.20050
C2129       C  0.28113912  0.71313772  0.35404873    -0.21490
C2130       C  0.26446624  0.72706414  0.34052433    -0.09530
C2131       C  0.24366561  0.73565448  0.35166969     0.29330
C2132       C  0.24061497  0.73184662  0.37611397    -0.21490
C2133       C  0.25826566  0.71962638  0.38987030    -0.09540
C2134       C  0.27816774  0.70957634  0.37863398     0.29340
F2135       F  0.29519848  0.69724429  0.39160100    -0.20060
H2136       H  0.29752885  0.70667426  0.34607380     0.17700
H2137       H  0.22492478  0.73930096  0.38454789     0.17710
F2138       F  0.22711077  0.74908082  0.33925782    -0.20050
C2139       C  0.30883624  0.86094275  0.23904120    -0.21490
C2140       C  0.29123271  0.85065795  0.25324110    -0.09530
C2141       C  0.26999299  0.86349890  0.25801946     0.29330
C2142       C  0.26836536  0.88722331  0.25217629    -0.21490
C2143       C  0.28737743  0.89821166  0.24061907    -0.09540
C2144       C  0.30695688  0.88461226  0.23271656     0.29340
F2145       F  0.32551133  0.89467586  0.22112324    -0.20060
H2146       H  0.32543623  0.85154343  0.23534313     0.17700
H2147       H  0.25274004  0.89724161  0.25763161     0.17710
F2148       F  0.25214968  0.85379191  0.27094950    -0.20050
C2149       C  0.59366633  0.98388491  0.71443406    -0.21490
C2150       C  0.58310977  0.99787288  0.73194310    -0.09530
C2151       C  0.59699895  0.00270921  0.75290446     0.29330
C2152       C  0.62164344  0.99686425  0.75451033    -0.21490
C2153       C  0.63269750  0.98508702  0.73589627    -0.09540
C2154       C  0.61827005  0.97751631  0.71638202     0.29340
F2155       F  0.62841288  0.96568486  0.69823123    -0.20060
H2156       H  0.58363678  0.97989610  0.69809924     0.17700
H2157       H  0.63225732  0.00202170  0.77011461     0.17710
F2158       F  0.58736006  0.01510213  0.77094460    -0.20050
C2159       C  0.48334291  0.13610085  0.69956615    -0.21490
C2160       C  0.48046548  0.12023445  0.71862370    -0.09530
C2161       C  0.48001659  0.12862653  0.74210257     0.29330
C2162       C  0.48309110  0.15235659  0.74642296    -0.21490
C2163       C  0.48732357  0.16800782  0.72751447    -0.09540
C2164       C  0.48703515  0.15978626  0.70395305     0.29340
F2165       F  0.49018695  0.17461285  0.68519935    -0.20060
H2166       H  0.48436944  0.12994326  0.68137761     0.17700
H2167       H  0.48281270  0.15843733  0.76468138     0.17710
F2168       F  0.47766189  0.11370590  0.76092883    -0.20050
C2169       C  0.47648618  0.99338996  0.59940226    -0.21490
C2170       C  0.49698712  0.99052950  0.58537924    -0.09530
C2171       C  0.52010508  0.99090804  0.59638500     0.29330
C2172       C  0.52271321  0.99596857  0.62058807    -0.21490
C2173       C  0.50239396  0.00156841  0.63417254    -0.09540
C2174       C  0.47908934  0.99908394  0.62360289     0.29340
F2175       F  0.45888554  0.00363217  0.63610330    -0.20060
H2176       H  0.45846255  0.99256803  0.59130585     0.17700
H2177       H  0.54090847  0.99736165  0.62811404     0.17710
F2178       F  0.54027165  0.98703575  0.58359640    -0.20050
C2179       C  0.62863877  0.01540539  0.62545229    -0.21490
C2180       C  0.65187660  0.02277428  0.63250734    -0.09530
C2181       C  0.65669377  0.02802272  0.65673073     0.29330
C2182       C  0.63782778  0.02872341  0.67269110    -0.21490
C2183       C  0.61400933  0.02426553  0.66478200    -0.09540
C2184       C  0.60981908  0.01604817  0.64143319     0.29340
F2185       F  0.58731665  0.00999538  0.63351627    -0.20060
H2186       H  0.62464003  0.01036004  0.60717168     0.17700
H2187       H  0.64166116  0.03452752  0.69075436     0.17710
F2188       F  0.67911046  0.03431659  0.66471256    -0.20050
C2189       C  0.69528692  0.97190108  0.65238689    -0.21490
C2190       C  0.71195268  0.98093652  0.66940008    -0.09530
C2191       C  0.73226158  0.99264898  0.66106075     0.29330
C2192       C  0.73522401  0.99617761  0.63645825    -0.21490
C2193       C  0.71752401  0.98905823  0.61931906    -0.09540
C2194       C  0.69781312  0.97609646  0.62765539     0.29340
F2195       F  0.68014888  0.96886202  0.61219327    -0.20060
H2196       H  0.67964148  0.96243717  0.65834984     0.17700
H2197       H  0.75075566  0.00608139  0.63095728     0.17710
F2198       F  0.74926264  0.00083618  0.67672673    -0.20050
C2199       C  0.72932433  0.14384183  0.52016940    -0.21490
C2200       C  0.74526855  0.15149056  0.50294940    -0.09530
C2201       C  0.75440054  0.13473192  0.48690699     0.29330
C2202       C  0.74772903  0.11096552  0.48861066    -0.21490
C2203       C  0.73187052  0.10335217  0.50625510    -0.09540
C2204       C  0.72301917  0.12041791  0.52209257     0.29340
F2205       F  0.70836386  0.11507593  0.54012396    -0.20060
H2206       H  0.72188257  0.15604792  0.53275195     0.17700
H2207       H  0.75523781  0.09848464  0.47636914     0.17710
F2208       F  0.76958687  0.14124552  0.46943532    -0.20050
C2209       C  0.59988863  0.00086303  0.48549487    -0.21490
C2210       C  0.58168781  0.99712621  0.50227282    -0.09530
C2211       C  0.58932484  0.99211583  0.52615821     0.29330
C2212       C  0.61406231  0.99252549  0.53313490    -0.21490
C2213       C  0.63216919  0.99772363  0.51664094    -0.09540
C2214       C  0.62464627  0.00110385  0.49243211     0.29340
F2215       F  0.64098692  0.00627906  0.47553428    -0.20060
H2216       H  0.59494005  0.00452773  0.46694432     0.17700
H2217       H  0.61889678  0.98993364  0.55188840     0.17710
F2218       F  0.57287458  0.98795976  0.54322249    -0.20050
C2219       C  0.60567195  0.14104326  0.71225205    -0.21490
C2220       C  0.62660588  0.12732813  0.70865248    -0.09530
C2221       C  0.62696554  0.10389077  0.71621695     0.29330
C2222       C  0.60782876  0.09505504  0.72888490    -0.21490
C2223       C  0.58650572  0.10830264  0.73166956    -0.09540
C2224       C  0.58554735  0.13147057  0.72317373     0.29340
F2225       F  0.56525483  0.14479235  0.72542202    -0.20060
H2226       H  0.60480037  0.15918527  0.70655183     0.17700
H2227       H  0.60956055  0.07731924  0.73554908     0.17710
F2228       F  0.64581868  0.08938310  0.71155980    -0.20050
C2229       C  0.75112303  0.14022113  0.61179073    -0.21490
C2230       C  0.75529362  0.13356829  0.63574095    -0.09530
C2231       C  0.76689870  0.11207702  0.64104495     0.29330
C2232       C  0.76853468  0.09537011  0.62329554    -0.21490
C2233       C  0.75846400  0.10013644  0.60040537    -0.09540
C2234       C  0.75274731  0.12346074  0.59399848     0.29340
F2235       F  0.74524970  0.12930932  0.57143980    -0.20060
H2236       H  0.74299508  0.15707296  0.60724592     0.17700
H2237       H  0.77427346  0.07782300  0.62845809     0.17710
F2238       F  0.77271417  0.10583091  0.66401648    -0.20050
C2239       C  0.68471457  0.10551184  0.74834912    -0.21490
C2240       C  0.70469318  0.12053359  0.74719940    -0.09530
C2241       C  0.72776848  0.11098964  0.75308952     0.29330
C2242       C  0.73101718  0.08683315  0.75674861    -0.21490
C2243       C  0.71147601  0.07141329  0.75417648    -0.09540
C2244       C  0.68803525  0.08109120  0.75111362     0.29340
F2245       F  0.66849045  0.06694125  0.75024752    -0.20060
H2246       H  0.66672068  0.11245560  0.74466790     0.17700
H2247       H  0.74922420  0.07998978  0.75988073     0.17710
F2248       F  0.74761628  0.12474476  0.75251350    -0.20050
C2249       C  0.73724309  0.24799160  0.63332428    -0.21490
C2250       C  0.74873763  0.22828876  0.64395130    -0.09530
C2251       C  0.75989231  0.21214698  0.62855936     0.29330
C2252       C  0.75822911  0.21519532  0.60337759    -0.21490
C2253       C  0.74564754  0.23448415  0.59297817    -0.09540
C2254       C  0.73535342  0.25090585  0.60854695     0.29340
F2255       F  0.72237563  0.26962044  0.59990496    -0.20060
H2256       H  0.72815089  0.26073143  0.64418819     0.17700
H2257       H  0.76682538  0.20252297  0.59206375     0.17710
F2258       F  0.77201258  0.19319266  0.63771954    -0.20050
C2259       C  0.61114664  0.21136139  0.73571413    -0.21490
C2260       C  0.63021983  0.22695973  0.73164344    -0.09530
C2261       C  0.62419034  0.25098008  0.72931888     0.29330
C2262       C  0.59989019  0.25872935  0.72953480    -0.21490
C2263       C  0.58069698  0.24295112  0.73209173    -0.09540
C2264       C  0.58684304  0.21911171  0.73594048     0.29340
F2265       F  0.56936938  0.20294847  0.73899593    -0.20060
H2266       H  0.61485519  0.19280063  0.73750672     0.17700
H2267       H  0.59609439  0.27718662  0.72686400     0.17710
F2268       F  0.64161476  0.26705543  0.72561758    -0.20050
C2269       C  0.51648519  0.11628906  0.60194658    -0.21490
C2270       C  0.53596064  0.13161450  0.60282662    -0.09530
C2271       C  0.55019171  0.13284661  0.62403259     0.29330
C2272       C  0.54489551  0.11859723  0.64391813    -0.21490
C2273       C  0.52521341  0.10312823  0.64288014    -0.09540
C2274       C  0.51109867  0.10220212  0.62150416     0.29340
F2275       F  0.49117622  0.08856477  0.61975346    -0.20060
H2276       H  0.50451777  0.11611868  0.58642338     0.17700
H2277       H  0.55602416  0.11976151  0.66011113     0.17710
F2278       F  0.56877606  0.14810500  0.62564267    -0.20050
C2279       C  0.66266543  0.20227436  0.59206149    -0.21490
C2280       C  0.63896096  0.21089318  0.59387682    -0.09530
C2281       C  0.63342155  0.22610313  0.61250159     0.29330
C2282       C  0.65006512  0.22921867  0.63124975    -0.21490
C2283       C  0.67253383  0.21760044  0.63118693    -0.09540
C2284       C  0.67949465  0.20571115  0.61050947     0.29340
F2285       F  0.70182319  0.19576156  0.60883694    -0.20060
H2286       H  0.66772554  0.19136230  0.57727978     0.17700
H2287       H  0.64469175  0.23936926  0.64647589     0.17710
F2288       F  0.61167687  0.23719494  0.61307241    -0.20050
C2289       C  0.62858767  0.08442634  0.54147813    -0.21490
C2290       C  0.65106576  0.08935729  0.53172959    -0.09530
C2291       C  0.65308357  0.10747435  0.51492171     0.29330
C2292       C  0.63307375  0.12128152  0.50876929    -0.21490
C2293       C  0.61067726  0.11715383  0.51916527    -0.09540
C2294       C  0.60840513  0.09834743  0.53539470     0.29340
F2295       F  0.58701205  0.09372849  0.54576864    -0.20060
H2296       H  0.62665882  0.06959093  0.55346802     0.17700
H2297       H  0.63522267  0.13548059  0.49604435     0.17710
F2298       F  0.67398556  0.11090690  0.50328454    -0.20050
C2299       C  0.63450732  0.22313121  0.50272209    -0.21490
C2300       C  0.61989641  0.23120011  0.52138385    -0.09530
C2301       C  0.63043957  0.24689324  0.53777308     0.29330
C2302       C  0.65521147  0.25262375  0.53651397    -0.21490
C2303       C  0.67019638  0.24266423  0.51915638    -0.09540
C2304       C  0.65924844  0.22839854  0.50181261     0.29340
F2305       F  0.67258256  0.21898252  0.48424420    -0.20060
H2306       H  0.62718493  0.21116393  0.48960568     0.17700
H2307       H  0.66301722  0.26385970  0.55004981     0.17710
F2308       F  0.61744589  0.25527923  0.55609670    -0.20050
C2309       C  0.50352270  0.24685152  0.61462549    -0.21490
C2310       C  0.52712750  0.23913368  0.60932486    -0.09530
C2311       C  0.54550320  0.24112441  0.62720788     0.29330
C2312       C  0.54043524  0.25011727  0.64958377    -0.21490
C2313       C  0.51687534  0.25684503  0.65514543    -0.09540
C2314       C  0.49838515  0.25557903  0.63742888     0.29340
F2315       F  0.47532390  0.26183366  0.64247170    -0.20060
H2316       H  0.48885052  0.24506896  0.60154029     0.17700
H2317       H  0.55475070  0.25033362  0.66325652     0.17710
F2318       F  0.56783567  0.23181878  0.62422840    -0.20050
C2319       C  0.49625325  0.10450301  0.53294782    -0.21490
C2320       C  0.50372678  0.12174411  0.51674966    -0.09530
C2321       C  0.51012307  0.11460959  0.49368772     0.29330
C2322       C  0.51139167  0.09091453  0.48797602    -0.21490
C2323       C  0.50631053  0.07343315  0.50496239    -0.09540
C2324       C  0.49781075  0.08060468  0.52736451     0.29340
F2325       F  0.49165481  0.06463579  0.54419575    -0.20060
H2326       H  0.49046021  0.10941078  0.55042706     0.17700
H2327       H  0.51718832  0.08630832  0.47029223     0.17710
F2328       F  0.51651857  0.13057274  0.47692100    -0.20050
C2329       C  0.48458179  0.26639908  0.84228943    -0.21490
C2330       C  0.46603399  0.25899665  0.85737814    -0.09530
C2331       C  0.44700422  0.24582927  0.84732245     0.29330
C2332       C  0.44536932  0.24255624  0.82243734    -0.21490
C2333       C  0.46237979  0.25267580  0.80721611    -0.09540
C2334       C  0.48257839  0.26374843  0.81753001     0.29340
F2335       F  0.50013841  0.27258464  0.80363788    -0.20060
H2336       H  0.49964285  0.27634948  0.84945965     0.17700
H2337       H  0.42997298  0.23333442  0.81493085     0.17710
F2338       F  0.42878577  0.23813088  0.86106326    -0.20050
C2339       C  0.39930376  0.24092215  0.99141642    -0.21490
C2340       C  0.40257176  0.24149860  0.96658283    -0.09530
C2341       C  0.38263769  0.23589303  0.95139550     0.29330
C2342       C  0.35942632  0.23403869  0.96060403    -0.21490
C2343       C  0.35565255  0.23718291  0.98510176    -0.09540
C2344       C  0.37613619  0.23886437  0.00065159     0.29340
F2345       F  0.37378097  0.24050910  0.02466742    -0.20060
H2346       H  0.41425274  0.24459733  0.00370176     0.17700
H2347       H  0.34421496  0.23169631  0.94824231     0.17710
F2348       F  0.38495432  0.23474010  0.92733002    -0.20050
C2349       C  0.48117868  0.37582327  0.95877101    -0.21490
C2350       C  0.49392791  0.35846736  0.97210069    -0.09530
C2351       C  0.51173777  0.36546916  0.98878119     0.29330
C2352       C  0.51645926  0.38944043  0.99176092    -0.21490
C2353       C  0.50338892  0.40672667  0.97819153    -0.09540
C2354       C  0.48560072  0.39945585  0.96171694     0.29340
F2355       F  0.47199026  0.41512678  0.94861872    -0.20060
H2356       H  0.46711112  0.37144124  0.94611913     0.17700
H2357       H  0.53016847  0.39446317  0.00487214     0.17710
F2358       F  0.52461194  0.34930146  0.00191466    -0.20050
C2359       C  0.35933153  0.27002078  0.82715444    -0.21490
C2360       C  0.33781646  0.26775834  0.83982742    -0.09530
C2361       C  0.33839366  0.27108053  0.86467121     0.29330
C2362       C  0.35998105  0.27706889  0.87640254    -0.21490
C2363       C  0.38131164  0.28022178  0.86360953    -0.09540
C2364       C  0.38086214  0.27632710  0.83883161     0.29340
F2365       F  0.40103958  0.27884708  0.82576483    -0.20060
H2366       H  0.35936202  0.26773688  0.80795300     0.17700
H2367       H  0.35977569  0.27986154  0.89551700     0.17710
F2368       F  0.31810558  0.26895874  0.87763425    -0.20050
C2369       C  0.35529085  0.29113232  0.73677264    -0.21490
C2370       C  0.33911360  0.27216032  0.73766377    -0.09530
C2371       C  0.34750506  0.25021055  0.73027956     0.29330
C2372       C  0.37207619  0.24676720  0.72565126    -0.21490
C2373       C  0.38892619  0.26498875  0.72844755    -0.09540
C2374       C  0.37995740  0.28760677  0.73250889     0.29340
F2375       F  0.39519607  0.30593671  0.73471547    -0.20060
H2376       H  0.34950409  0.30845096  0.74191984     0.17700
H2377       H  0.37817051  0.22923483  0.72165664     0.17710
F2378       F  0.33262885  0.23150172  0.72981782    -0.20050
C2379       C  0.22841406  0.39378495  0.75769040    -0.21490
C2380       C  0.24741615  0.40971497  0.75552675    -0.09530
C2381       C  0.27131309  0.40095396  0.75448529     0.29330
C2382       C  0.27615607  0.37697387  0.75740854    -0.21490
C2383       C  0.25742308  0.36135415  0.76225386    -0.09540
C2384       C  0.23335197  0.36988846  0.76142254     0.29340
F2385       F  0.21481472  0.35542257  0.76646760    -0.20060
H2386       H  0.20984136  0.40003097  0.75818711     0.17700
H2387       H  0.29486989  0.37103832  0.75851516     0.17710
F2388       F  0.29012803  0.41568607  0.75156298    -0.20050
C2389       C  0.23689200  0.24154749  0.86883402    -0.21490
C2390       C  0.25697246  0.23451359  0.85556417    -0.09530
C2391       C  0.27844038  0.22776607  0.86836533     0.29330
C2392       C  0.28012417  0.22973448  0.89342497    -0.21490
C2393       C  0.26030687  0.23769740  0.90639545    -0.09540
C2394       C  0.23840383  0.24284509  0.89386403     0.29340
F2395       F  0.21861953  0.24995372  0.90581525    -0.20060
H2396       H  0.22022975  0.24714217  0.85968119     0.17700
H2397       H  0.29688590  0.22474357  0.90276024     0.17710
F2398       F  0.29835155  0.22061104  0.85665763    -0.20050
C2399       C  0.51746678  0.39008619  0.85154390    -0.21490
C2400       C  0.50588279  0.41130808  0.85670483    -0.09530
C2401       C  0.49527216  0.41396918  0.87908341     0.29330
C2402       C  0.48988869  0.39406135  0.89233757    -0.21490
C2403       C  0.49578051  0.37199994  0.88345852    -0.09540
C2404       C  0.51190238  0.37017015  0.86461783     0.29340
F2405       F  0.51944226  0.34898189  0.85687426    -0.20060
H2406       H  0.52687754  0.38802212  0.83494037     0.17700
H2407       H  0.47810643  0.39575629  0.90735975     0.17710
F2408       F  0.48551887  0.43474535  0.88557482    -0.20050
C2409       C  0.36298220  0.39797758  0.79740947    -0.21490
C2410       C  0.38568721  0.38682513  0.79467595    -0.09530
C2411       C  0.38677628  0.36240762  0.79357161     0.29330
C2412       C  0.36568650  0.34952759  0.79572069    -0.21490
C2413       C  0.34309539  0.36065995  0.79904904    -0.09540
C2414       C  0.34189573  0.38507722  0.79960722     0.29340
F2415       F  0.32044922  0.39651656  0.80206213    -0.20060
H2416       H  0.36147704  0.41682695  0.79826665     0.17700
H2417       H  0.36718827  0.33066188  0.79510992     0.17710
F2418       F  0.40808167  0.35092346  0.79042288    -0.20050
C2419       C  0.48159261  0.38848493  0.73249766    -0.21490
C2420       C  0.45814959  0.39467243  0.73971489    -0.09530
C2421       C  0.44014489  0.37743592  0.73837729     0.29330
C2422       C  0.44633942  0.35402733  0.73358964    -0.21490
C2423       C  0.47040954  0.34744061  0.72893639    -0.09540
C2424       C  0.48766225  0.36529011  0.72700037     0.29340
F2425       F  0.51108798  0.36003029  0.72234839    -0.20060
H2426       H  0.49598030  0.40116501  0.73373079     0.17700
H2427       H  0.43247773  0.34085117  0.73462285     0.17710
F2428       F  0.41714697  0.38257384  0.74462104    -0.20050
C2429       C  0.36602761  0.51246344  0.75396151    -0.21490
C2430       C  0.37429264  0.48926040  0.75164682    -0.09530
C2431       C  0.35682805  0.47179305  0.74765937     0.29330
C2432       C  0.33205237  0.47700289  0.74918778    -0.21490
C2433       C  0.32398006  0.49970563  0.75446060    -0.09540
C2434       C  0.34123786  0.51768782  0.75542450     0.29340
F2435       F  0.33451525  0.54006104  0.75986301    -0.20060
H2436       H  0.37880735  0.52641525  0.75691783     0.17700
H2437       H  0.31926434  0.46285389  0.74767544     0.17710
F2438       F  0.36361494  0.44922123  0.74438148    -0.20050
C2439       C  0.47172107  0.52016553  0.86599237    -0.21490
C2440       C  0.48654062  0.50556669  0.85247014    -0.09530
C2441       C  0.50412350  0.49149165  0.86490106     0.29330
C2442       C  0.50539715  0.49089510  0.89009394    -0.21490
C2443       C  0.48965246  0.50469220  0.90347982    -0.09540
C2444       C  0.47313737  0.51975666  0.89098551     0.29340
F2445       F  0.45732040  0.53338110  0.90288884    -0.20060
H2446       H  0.45787406  0.53107079  0.85726409     0.17700
H2447       H  0.51867887  0.47957818  0.89912763     0.17710
F2448       F  0.51951477  0.47758829  0.85283632    -0.20050
C2449       C  0.36321427  0.45473840  0.85535542    -0.21490
C2450       C  0.37027039  0.44736424  0.87858688    -0.09530
C2451       C  0.39440611  0.45078716  0.88658457     0.29330
C2452       C  0.41112339  0.46080527  0.87138262    -0.21490
C2453       C  0.40414989  0.46788237  0.84805931    -0.09540
C2454       C  0.37989305  0.46498038  0.84022924     0.29340
F2455       F  0.37245170  0.47108828  0.81764110    -0.20060
H2456       H  0.34473032  0.45253575  0.84881864     0.17700
H2457       H  0.42969504  0.46271862  0.87778786     0.17710
F2458       F  0.40213748  0.44386683  0.90884655    -0.20050
C2459       C  0.27086291  0.32841089  0.91600755    -0.21490
C2460       C  0.26197103  0.35135821  0.91439625    -0.09530
C2461       C  0.24048157  0.35632252  0.90131125     0.29330
C2462       C  0.23131211  0.33976416  0.88565413    -0.21490
C2463       C  0.24439803  0.31894905  0.88252198    -0.09540
C2464       C  0.26180318  0.31187001  0.90012173     0.29340
F2465       F  0.27372821  0.29110785  0.89858694    -0.20060
H2466       H  0.28709354  0.32429856  0.92665741     0.17700
H2467       H  0.21710571  0.34504824  0.87288318     0.17710
F2468       F  0.23096536  0.37830360  0.90060956    -0.20050
C2469       C  0.38838898  0.38199240  0.97448744    -0.21490
C2470       C  0.36494181  0.37274795  0.97349993    -0.09530
C2471       C  0.36194612  0.34904103  0.96776843     0.29330
C2472       C  0.38210694  0.33511269  0.96284944    -0.21490
C2473       C  0.40541990  0.34463870  0.96314230    -0.09540
C2474       C  0.40842846  0.36813296  0.96928698     0.29340
F2475       F  0.43074873  0.37757672  0.97105981    -0.20060
H2476       H  0.39123091  0.40016412  0.97882387     0.17700
H2477       H  0.37948691  0.31692273  0.95843541     0.17710
F2478       F  0.33963404  0.33929274  0.96690532    -0.20050
C2479       C  0.29780717  0.48247133  0.87809859    -0.21490
C2480       C  0.28255812  0.46628878  0.88891505    -0.09530
C2481       C  0.26050458  0.46065914  0.87704282     0.29330
C2482       C  0.25543712  0.46870871  0.85373172    -0.21490
C2483       C  0.27183680  0.48305634  0.84198243    -0.09540
C2484       C  0.29253933  0.49086300  0.85488715     0.29340
F2485       F  0.30868467  0.50526774  0.84455372    -0.20060
H2486       H  0.31499783  0.48689085  0.88660203     0.17700
H2487       H  0.23895872  0.46314304  0.84461936     0.17710
F2488       F  0.24483935  0.44559016  0.88715808    -0.20050
C2489       C  0.26554566  0.35186715  0.98578163    -0.21490
C2490       C  0.28043302  0.36505433  0.00137303    -0.09530
C2491       C  0.29583790  0.35297642  0.01784610     0.29330
C2492       C  0.29779257  0.32868990  0.01722997    -0.21490
C2493       C  0.28434135  0.31559142  0.00042800    -0.09540
C2494       C  0.26760908  0.32744127  0.98510511     0.29340
F2495       F  0.25336609  0.31555297  0.96939915    -0.20060
H2496       H  0.25331036  0.36054328  0.97296912     0.17700
H2497       H  0.31047594  0.32016655  0.02972463     0.17710
F2498       F  0.31026834  0.36460266  0.03362048    -0.20050
C2499       C  0.39209520  0.46817288  0.99615937    -0.21490
C2500       C  0.37438505  0.47827852  0.98057090    -0.09530
C2501       C  0.38063903  0.49746212  0.96616485     0.29330
C2502       C  0.40452230  0.50555409  0.96661683    -0.21490
C2503       C  0.42255414  0.49402932  0.98070648    -0.09540
C2504       C  0.41604147  0.47563049  0.99591803     0.29340
F2505       F  0.43300703  0.46428757  0.00990733    -0.20060
H2506       H  0.38790205  0.45305920  0.00707081     0.17700
H2507       H  0.40926225  0.51983957  0.95482895     0.17710
F2508       F  0.36400888  0.50756135  0.95085689    -0.20050
C2509       C  0.97565528  0.73543529  0.84476391    -0.21490
C2510       C  0.00018133  0.73772113  0.83926230    -0.09530
C2511       C  0.01766981  0.73687922  0.85819247     0.29330
C2512       C  0.01047463  0.73703912  0.88190425    -0.21490
C2513       C  0.98581694  0.73836727  0.88730934    -0.09540
C2514       C  0.96847928  0.73548674  0.86853150     0.29340
F2515       F  0.94439487  0.73522063  0.87283358    -0.20060
H2516       H  0.96180944  0.73500380  0.83066982     0.17700
H2517       H  0.02433340  0.73872821  0.89585248     0.17710
F2518       F  0.04175864  0.73769182  0.85402215    -0.20050
C2519       C  0.87244337  0.74192138  0.94822865    -0.21490
C2520       C  0.89050652  0.74987699  0.96410702    -0.09530
C2521       C  0.88588672  0.75027685  0.98871085     0.29330
C2522       C  0.86223425  0.74742208  0.99651103    -0.21490
C2523       C  0.84326433  0.74411365  0.97975577    -0.09540
C2524       C  0.84875083  0.73960359  0.95587223     0.29340
F2525       F  0.83098110  0.73445320  0.93964042    -0.20060
H2526       H  0.87566350  0.74138582  0.92920755     0.17700
H2527       H  0.85843760  0.75002356  0.01519336     0.17710
F2528       F  0.90329482  0.75743231  0.00450889    -0.20050
C2529       C  0.99276421  0.85967700  0.99893930    -0.21490
C2530       C  0.00855354  0.84575208  0.98554559    -0.09530
C2531       C  0.02742398  0.85685048  0.97344913     0.29330
C2532       C  0.02948274  0.88124969  0.97389244    -0.21490
C2533       C  0.01236721  0.89495783  0.98564465    -0.09540
C2534       C  0.99429252  0.88398290  0.99856003     0.29340
F2535       F  0.97820608  0.89680316  0.01100088    -0.20060
H2536       H  0.97814570  0.85186424  0.00864507     0.17700
H2537       H  0.04405873  0.88952377  0.96450864     0.17710
F2538       F  0.04319607  0.84435212  0.96034634    -0.20050
C2539       C  0.98258314  0.84055918  0.85394437    -0.21490
C2540       C  0.97251385  0.86300117  0.85555571    -0.09530
C2541       C  0.96916672  0.87290043  0.87815641     0.29330
C2542       C  0.97512704  0.86018748  0.89875058    -0.21490
C2543       C  0.98431267  0.83736192  0.89728449    -0.09540
C2544       C  0.98862292  0.82778220  0.87464618     0.29340
F2545       F  0.99754590  0.80574963  0.87236744    -0.20060
H2546       H  0.98539718  0.83276754  0.83668087     0.17700
H2547       H  0.97151109  0.86793837  0.91588075     0.17710
F2548       F  0.95879677  0.89435836  0.88047918    -0.20050
C2549       C  0.85948893  0.95492435  0.74884429    -0.21490
C2550       C  0.87550579  0.97217794  0.75751363    -0.09530
C2551       C  0.86524788  0.99307740  0.76581964     0.29330
C2552       C  0.83996168  0.99604107  0.76647308    -0.21490
C2553       C  0.82391913  0.97833168  0.75895310    -0.09540
C2554       C  0.83412414  0.95782507  0.74966991     0.29340
F2555       F  0.81967501  0.94054448  0.74134388    -0.20060
H2556       H  0.86658624  0.93862614  0.74220194     0.17700
H2557       H  0.83293889  0.01225659  0.77342371     0.17710
F2558       F  0.87960519  0.01055378  0.77388534    -0.20050
C2559       C  0.01112045  0.85442904  0.79236008    -0.21490
C2560       C  0.99828942  0.86546401  0.77321977    -0.09530
C2561       C  0.99369859  0.85224146  0.75235422     0.29330
C2562       C  0.99904793  0.82823172  0.75183963    -0.21490
C2563       C  0.01007482  0.81678879  0.77164941    -0.09540
C2564       C  0.01717099  0.83042944  0.79153175     0.29340
F2565       F  0.02821728  0.82019045  0.81101526    -0.20060
H2566       H  0.01458809  0.86379223  0.80878749     0.17700
H2567       H  0.99402454  0.81843386  0.73605119     0.17710
F2568       F  0.98197265  0.86214763  0.73304107    -0.20050
C2569       C  0.98904316  0.98938754  0.85955906    -0.21490
C2570       C  0.99392675  0.96652106  0.85198922    -0.09530
C2571       C  0.00157978  0.94982395  0.86959242     0.29330
C2572       C  0.00258793  0.95553301  0.89393696    -0.21490
C2573       C  0.99625921  0.97801853  0.90162737    -0.09540
C2574       C  0.99021510  0.99514079  0.88390962     0.29340
F2575       F  0.98448897  0.01736139  0.88999603    -0.20060
H2576       H  0.98291355  0.00265307  0.84673640     0.17700
H2577       H  0.00786187  0.94204227  0.90685719     0.17710
F2578       F  0.00687895  0.92748323  0.86357266    -0.20050
C2579       C  0.89831631  0.90563589  0.95965499    -0.21490
C2580       C  0.87592871  0.90402125  0.97090022    -0.09530
C2581       C  0.87270044  0.88612824  0.98808644     0.29330
C2582       C  0.89038679  0.86906214  0.99193989    -0.21490
C2583       C  0.91148899  0.86918009  0.97873907    -0.09540
C2584       C  0.91608635  0.88823905  0.96349942     0.29340
F2585       F  0.93655772  0.88887551  0.95062911    -0.20060
H2586       H  0.90162273  0.91968720  0.94708824     0.17700
H2587       H  0.88669488  0.85460046  0.00394029     0.17710
F2588       F  0.85205286  0.88433984  0.00060333    -0.20050
C2589       C  0.87482536  0.98741542  0.86188178    -0.21490
C2590       C  0.87785688  0.97501680  0.88355151    -0.09530
C2591       C  0.89042832  0.95342798  0.88378769     0.29330
C2592       C  0.89966458  0.94459909  0.86256068    -0.21490
C2593       C  0.89606278  0.95693175  0.84090683    -0.09540
C2594       C  0.88390889  0.97857049  0.84084031     0.29340
F2595       F  0.88180740  0.99169434  0.82051955    -0.20060
H2596       H  0.86496037  0.00389512  0.86118850     0.17700
H2597       H  0.91012904  0.92846569  0.86309480     0.17710
F2598       F  0.89303669  0.94050126  0.90420669    -0.20050
C2599       C  0.76093056  0.99646379  0.87161156    -0.21490
C2600       C  0.75992028  0.97370803  0.88123579    -0.09530
C2601       C  0.74981624  0.95617388  0.86667542     0.29330
C2602       C  0.74497216  0.96053018  0.84210743    -0.21490
C2603       C  0.74935466  0.98263420  0.83178173    -0.09540
C2604       C  0.75584775  0.00094893  0.84733227     0.29340
F2605       F  0.75931266  0.02296428  0.83890903    -0.20060
H2606       H  0.76829392  0.01045251  0.88237160     0.17700
H2607       H  0.73929069  0.94617201  0.83093105     0.17710
F2608       F  0.74712370  0.93420331  0.87545399    -0.20050
C2609       C  0.78161695  0.86737690  0.98782370    -0.21490
C2610       C  0.76913576  0.88232136  0.97129455    -0.09530
C2611       C  0.75071765  0.87267029  0.95670712     0.29330
C2612       C  0.74521536  0.84879048  0.95851708    -0.21490
C2613       C  0.75844378  0.83365948  0.97427323    -0.09540
C2614       C  0.77662452  0.84334618  0.98910546     0.29340
F2615       F  0.78962198  0.82962403  0.00484710    -0.20060
H2616       H  0.79631785  0.87405831  0.99890094     0.17700
H2617       H  0.73104002  0.84192720  0.94690844     0.17710
F2618       F  0.73838472  0.88619583  0.94028598    -0.20050
C2619       C  0.89615504  0.96317641  0.99826486    -0.21490
C2620       C  0.87975754  0.98146902  0.99223907    -0.09530
C2621       C  0.88917619  0.00328392  0.98572613     0.29330
C2622       C  0.91413236  0.00604903  0.98315958    -0.21490
C2623       C  0.93043022  0.98711373  0.98677785    -0.09540
C2624       C  0.92119137  0.96582956  0.99542171     0.29340
F2625       F  0.93604831  0.94713171  0.99985248    -0.20060
H2626       H  0.88947081  0.94608171  0.00304506     0.17700
H2627       H  0.92050264  0.02286008  0.97707310     0.17710
F2628       F  0.87406014  0.02150496  0.98002175    -0.20050
C2629       C  0.83898580  0.86089143  0.74006051    -0.21490
C2630       C  0.84776393  0.83932887  0.73170913    -0.09530
C2631       C  0.87192736  0.83710542  0.72552266     0.29330
C2632       C  0.88774085  0.85516072  0.73055557    -0.21490
C2633       C  0.87987694  0.87490219  0.74327789    -0.09540
C2634       C  0.85506831  0.87850333  0.74638554     0.29340
F2635       F  0.84671140  0.89748340  0.75803669    -0.20060
H2636       H  0.82014491  0.86320702  0.74437216     0.17700
H2637       H  0.90673159  0.85235819  0.72696356     0.17710
F2638       F  0.88062921  0.81675180  0.71676238    -0.20050
C2639       C  0.84408422  0.79067252  0.85558425    -0.21490
C2640       C  0.85427984  0.78413187  0.83395149    -0.09530
C2641       C  0.87961829  0.78258042  0.83252192     0.29330
C2642       C  0.89438449  0.78664468  0.85288354    -0.21490
C2643       C  0.88406781  0.79264236  0.87478132    -0.09540
C2644       C  0.85865236  0.79497650  0.87572236     0.29340
F2645       F  0.84761346  0.80038744  0.89636548    -0.20060
H2646       H  0.82456807  0.79186993  0.85707620     0.17700
H2647       H  0.91385420  0.78481177  0.85159880     0.17710
F2648       F  0.88998461  0.77587713  0.81195041    -0.20050
C2649       C  0.77912299  0.86186223  0.85136658    -0.21490
C2650       C  0.78264062  0.86731267  0.82715343    -0.09530
C2651       C  0.78701552  0.89054976  0.82034568     0.29330
C2652       C  0.79070236  0.90729488  0.83781992    -0.21490
C2653       C  0.79011655  0.90111115  0.86220693    -0.09540
C2654       C  0.78286409  0.87854526  0.86881535     0.29340
F2655       F  0.78058867  0.87211901  0.89209349    -0.20060
H2656       H  0.77485888  0.84425909  0.85704036     0.17700
H2657       H  0.79538713  0.92479628  0.83218207     0.17710
F2658       F  0.78960691  0.89681812  0.79707696    -0.20050
C2659       C  0.73328400  0.88218529  0.77880623    -0.21490
C2660       C  0.73586777  0.89141301  0.75555394    -0.09530
C2661       C  0.73650034  0.87573557  0.73641007     0.29330
C2662       C  0.73770160  0.85164507  0.74071144    -0.21490
C2663       C  0.73861136  0.84239560  0.76418312    -0.09540
C2664       C  0.73377974  0.85780561  0.78302372     0.29340
F2665       F  0.73231944  0.84959873  0.80579042    -0.20060
H2666       H  0.73133807  0.89384217  0.79375239     0.17700
H2667       H  0.74073673  0.84031598  0.72568060     0.17710
F2668       F  0.73795440  0.88368615  0.71352980    -0.20050
C2669       C  0.90176460  0.74783030  0.73606055    -0.21490
C2670       C  0.91702981  0.73887507  0.75451458    -0.09530
C2671       C  0.90673898  0.72910144  0.77489733     0.29330
C2672       C  0.88149715  0.72900887  0.77706654    -0.21490
C2673       C  0.86600570  0.73875642  0.75897343    -0.09540
C2674       C  0.87654506  0.74799274  0.73824632     0.29340
F2675       F  0.86261960  0.75774201  0.72030658    -0.20060
H2676       H  0.90945769  0.75486375  0.71991862     0.17700
H2677       H  0.87414335  0.72200769  0.79337191     0.17710
F2678       F  0.92108983  0.71949550  0.79259538    -0.20050
C2679       C  0.77725413  0.75210155  0.87392249    -0.21490
C2680       C  0.75911133  0.75869846  0.85709628    -0.09530
C2681       C  0.73593351  0.76447329  0.86491866     0.29330
C2682       C  0.73125450  0.76404490  0.88948179    -0.21490
C2683       C  0.74984997  0.75851979  0.90657040    -0.09540
C2684       C  0.77288308  0.75223279  0.89832808     0.29340
F2685       F  0.79168554  0.74738894  0.91375319    -0.20060
H2686       H  0.79545926  0.74825884  0.86818546     0.17700
H2687       H  0.71331227  0.76891991  0.89513719     0.17710
F2688       F  0.71812021  0.77103365  0.84894088    -0.20050
loop_ 
_geom_bond_atom_site_label_1 
_geom_bond_atom_site_label_2 
_geom_bond_distance 
_geom_bond_site_symmetry_2 
_ccdc_geom_bond_type 
O1           Ni7   1.890       .  S
O1           C22   1.259       .  A
O2          Ni25   1.911       .  S
O2           C11   1.270       .  A
O3           Ni7   1.863       .  S
O3          Ni25   1.895       .  S
O3          Ni19   1.880       .  S
O3           H26   0.967       .  S
C4           O21   1.258       .  A
C4           O13   1.268       .  A
C4         C2673   1.492       .  S
O5          Ni24   1.922       .  S
O5           C11   1.273       .  A
O6          Ni24   1.892       .  S
O6            C8   1.275       .  A
Ni7          O10   1.955       .  S
Ni7          O12   1.875       .  S
C8           O18   1.290       .  A
C8         C2640   1.474       .  S
O9          Ni25   1.880       .  S
O9           C15   1.280       .  A
O10          C15   1.292       .  A
C11        C2680   1.468       .  S
O12          C14   1.240       .  A
O13         Ni24   1.946       .  S
C14          O20   1.268       .  A
C14        C2663   1.498       .  S
C15        C2650   1.467       .  S
H16          O17   0.966       .  S
O17         Ni25   1.952       .  S
O17         Ni19   1.930       .  S
O17         Ni24   1.926       .  S
O18         Ni19   1.981       .  S
Ni19         O23   1.917       .  S
Ni19         O21   1.894       .  S
O20         Ni25   1.987       .  S
C22          O23   1.272       .  A
C22        C2630   1.459       .  S
O27         Ni33   1.940       .  S
O27          C48   1.278       .  A
O28         Ni51   1.929       .  S
O28          C37   1.261       .  A
O29         Ni33   1.941       .  S
O29         Ni51   1.940       .  S
O29         Ni45   1.948       .  S
O29          H52   0.966       .  S
C30          O47   1.280       .  A
C30          O39   1.285       .  A
C30        C2653   1.468       .  S
O31         Ni50   1.884       .  S
O31          C37   1.254       .  A
O32         Ni50   1.882       .  S
O32          C34   1.247       .  A
Ni33         O36   1.971       .  S
Ni33         O38   1.873       .  S
C34          O44   1.272       .  A
C34        C2600   1.494       .  S
O35         Ni51   1.885       .  S
O35          C41   1.255       .  A
O36          C41   1.275       .  A
C37        C2590   1.472       .  S
O38          C40   1.263       .  A
O39         Ni50   1.937       .  S
C40          O46   1.279       .  A
C40        C2580   1.475       .  S
C41        C2620   1.486       .  S
H42          O43   0.967       .  S
O43         Ni51   1.891       .  S
O43         Ni45   1.897       .  S
O43         Ni50   1.894       .  S
O44         Ni45   1.983       .  S
Ni45         O49   1.910       .  S
Ni45         O47   1.893       .  S
O46         Ni51   1.962       .  S
C48          O49   1.271       .  A
C48        C2610   1.497       .  S
O53         Ni59   1.896       .  S
O53          C74   1.261       .  A
O54         Ni77   1.893       .  S
O54          C63   1.265       .  A
O55         Ni59   1.872       .  S
O55         Ni77   1.902       .  S
O55         Ni71   1.871       .  S
O55          H78   0.967       .  S
C56          O73   1.258       .  A
C56          O65   1.275       .  A
C56        C2550   1.505       .  S
O57         Ni76   1.942       .  S
O57          C63   1.279       .  A
O58         Ni76   1.873       .  S
O58          C60   1.263       .  A
Ni59         O62   1.959       .  S
Ni59         O64   1.868       .  S
C60          O70   1.288       .  A
C60        C2593   1.460       .  S
O61         Ni77   1.864       .  S
O61          C67   1.270       .  A
O62          C67   1.287       .  A
C63        C2570   1.500       .  S
O64          C66   1.235       .  A
O65         Ni76   1.972       .  S
C66          O72   1.273       .  A
C66        C2560   1.499       .  S
C67        C2540   1.460       .  S
H68          O69   0.966       .  S
O69         Ni77   1.937       .  S
O69         Ni71   1.938       .  S
O69         Ni76   1.941       .  S
O70         Ni71   1.982       .  S
Ni71         O75   1.916       .  S
Ni71         O73   1.893       .  S
O72         Ni77   2.002       .  S
C74          O75   1.272       .  A
C74        C2633   1.468       .  S
O79         Ni85   1.933   1_655  S
O79         C100   1.281       .  A
O80        Ni103   1.913       .  S
O80          C89   1.261       .  A
O81         Ni85   1.934   1_655  S
O81        Ni103   1.902       .  S
O81         Ni97   1.945       .  S
O81         H104   0.966       .  S
C82          O99   1.283       .  A
C82          O91   1.282       .  A
C82        C2643   1.486       .  S
O83        Ni102   1.902       .  S
O83          C89   1.261       .  A
O84        Ni102   1.871       .  S
O84          C86   1.260       .  A
Ni85         O88   1.970       .  S
Ni85         O90   1.884   1_455  S
C86          O96   1.272       .  A
C86        C2520   1.457       .  S
O87        Ni103   1.882       .  S
O87          C93   1.253   1_655  A
O88          C93   1.274       .  A
C89        C2583   1.461       .  S
O90          C92   1.267       .  A
O91        Ni102   1.923       .  S
C92          O98   1.280       .  A
C92        C2543   1.466       .  S
C93        C2530   1.489       .  S
H94          O95   0.966       .  S
O95        Ni103   1.887       .  S
O95         Ni97   1.874       .  S
O95        Ni102   1.872       .  S
O96         Ni97   1.938       .  S
Ni97        O101   1.888       .  S
Ni97         O99   1.930       .  S
O98        Ni103   1.949       .  S
C100        O101   1.269       .  A
C100       C2513   1.484       .  S
O105       Ni111   1.922       .  S
O105        C126   1.270       .  A
O106       Ni129   1.900       .  S
O106        C115   1.269       .  A
O107       Ni111   1.896       .  S
O107       Ni129   1.913       .  S
O107       Ni123   1.901       .  S
O107        H130   0.966       .  S
C108        O125   1.254       .  A
C108        O117   1.274   1_556  A
C108       C2490   1.488   1_556  S
O109       Ni128   1.927       .  S
O109        C115   1.275       .  A
O110       Ni128   1.901       .  S
O110        C112   1.269       .  A
Ni111       O114   1.955       .  S
Ni111       O116   1.880       .  S
C112        O122   1.274       .  A
C112       C2470   1.475       .  S
O113       Ni129   1.889       .  S
O113        C119   1.267       .  A
O114        C119   1.280       .  A
C115       C2500   1.475       .  S
O116        C118   1.254       .  A
O117       Ni128   1.959   1_554  S
C118        O124   1.280       .  A
C118       C2480   1.479       .  S
C119       C2450   1.479       .  S
H120        O121   0.966       .  S
O121       Ni129   1.913       .  S
O121       Ni123   1.900       .  S
O121       Ni128   1.940       .  S
O122       Ni123   1.947       .  S
Ni123       O127   1.880       .  S
Ni123       O125   1.885       .  S
O124       Ni129   1.974       .  S
C126        O127   1.255       .  A
C126       C2460   1.452       .  S
O131       Ni137   1.930       .  S
O131        C152   1.277       .  A
O132       Ni155   1.894       .  S
O132        C141   1.263       .  A
O133       Ni137   1.943       .  S
O133       Ni155   1.924       .  S
O133       Ni149   1.942       .  S
O133        H156   0.966       .  S
C134        O151   1.272       .  A
C134        O143   1.292       .  A
C134       C2410   1.476       .  S
O135       Ni154   1.922       .  S
O135        C141   1.269       .  A
O136       Ni154   1.877       .  S
O136        C138   1.250       .  A
Ni137       O140   1.960       .  S
Ni137       O142   1.904       .  S
C138        O148   1.282       .  A
C138       C2420   1.490       .  S
O139       Ni155   1.891       .  S
O139        C145   1.256       .  A
O140        C145   1.273       .  A
C141       C2400   1.463       .  S
O142        C144   1.272       .  A
O143       Ni154   1.966       .  S
C144        O150   1.281       .  A
C144       C2453   1.477       .  S
C145       C2440   1.498       .  S
H146        O147   0.966       .  S
O147       Ni155   1.876       .  S
O147       Ni149   1.883       .  S
O147       Ni154   1.862       .  S
O148       Ni149   1.990       .  S
Ni149       O153   1.907       .  S
Ni149       O151   1.871       .  S
O150       Ni155   1.959       .  S
C152        O153   1.271       .  A
C152       C2430   1.495       .  S
O157       Ni163   1.947       .  S
O157        C178   1.283       .  A
O158       Ni181   1.893       .  S
O158        C167   1.262       .  A
O159       Ni163   1.950       .  S
O159       Ni181   1.909       .  S
O159       Ni175   1.928       .  S
O159        H182   0.966       .  S
C160        O177   1.269       .  A
C160        O169   1.291       .  A
C160       C2413   1.474       .  S
O161       Ni180   1.928       .  S
O161        C167   1.272       .  A
O162       Ni180   1.883       .  S
O162        C164   1.254       .  A
Ni163       O166   1.984       .  S
Ni163       O168   1.888       .  S
C164        O174   1.278       .  A
C164       C2383   1.479       .  S
O165       Ni181   1.883       .  S
O165        C171   1.251       .  A
O166        C171   1.276       .  A
C167       C2463   1.464       .  S
O168        C170   1.268       .  A
O169       Ni180   1.967       .  S
C170        O176   1.281       .  A
C170       C2360   1.472       .  S
C171       C2390   1.499       .  S
H172        O173   0.966       .  S
O173       Ni181   1.876       .  S
O173       Ni175   1.880       .  S
O173       Ni180   1.868       .  S
O174       Ni175   1.968       .  S
Ni175       O179   1.888       .  S
Ni175       O177   1.869       .  S
O176       Ni181   1.963       .  S
C178        O179   1.267       .  A
C178       C2370   1.494       .  S
O183       Ni189   1.929       .  S
O183        C204   1.270       .  A
O184       Ni207   1.893       .  S
O184        C193   1.269       .  A
O185       Ni189   1.888       .  S
O185       Ni207   1.908       .  S
O185       Ni201   1.875       .  S
O185        H208   0.966       .  S
C186        O203   1.252       .  A
C186        O195   1.274       .  A
C186       C2350   1.486       .  S
O187       Ni206   1.933       .  S
O187        C193   1.279       .  A
O188       Ni206   1.892       .  S
O188        C190   1.267       .  A
Ni189       O192   1.960       .  S
Ni189       O194   1.879       .  S
C190        O200   1.281       .  A
C190       C2473   1.470       .  S
O191       Ni207   1.881       .  S
O191        C197   1.272       .  A
O192        C197   1.285       .  A
C193       C2340   1.488       .  S
O194        C196   1.246       .  A
O195       Ni206   1.979       .  S
C196        O202   1.274       .  A
C196       C2330   1.488       .  S
C197       C2363   1.475       .  S
H198        O199   0.966       .  S
O199       Ni207   1.925       .  S
O199       Ni201   1.902       .  S
O199       Ni206   1.941       .  S
O200       Ni201   1.968       .  S
Ni201       O205   1.873       .  S
Ni201       O203   1.887       .  S
O202       Ni207   1.983       .  S
C204        O205   1.256       .  A
C204       C2403   1.458       .  S
O209       Ni215   1.890       .  S
O209        C230   1.256       .  A
O210       Ni233   1.908       .  S
O210        C219   1.276       .  A
O211       Ni215   1.892       .  S
O211       Ni233   1.906       .  S
O211       Ni227   1.888       .  S
O211        H234   0.967       .  S
C212        O229   1.249       .  A
C212        O221   1.279       .  A
C212       C2320   1.495       .  S
O213       Ni232   1.940       .  S
O213        C219   1.279       .  A
O214       Ni232   1.896       .  S
O214        C216   1.264       .  A
Ni215       O218   1.941       .  S
Ni215       O220   1.875       .  S
C216        O226   1.283       .  A
C216       C2270   1.476       .  S
O217       Ni233   1.896       .  S
O217        C223   1.282       .  A
O218        C223   1.286       .  A
C219       C2310   1.494       .  S
O220        C222   1.243       .  A
O221       Ni232   1.995       .  S
C222        O228   1.275       .  A
C222       C2300   1.509       .  S
C223       C2280   1.463       .  S
H224        O225   0.966       .  S
O225       Ni233   1.941       .  S
O225       Ni227   1.917       .  S
O225       Ni232   1.945       .  S
O226       Ni227   1.977       .  S
Ni227       O231   1.905       .  S
Ni227       O229   1.875       .  S
O228       Ni233   1.996       .  S
C230        O231   1.256       .  A
C230       C2293   1.462       .  S
O235       Ni241   1.917       .  S
O235        C256   1.268       .  A
O236       Ni259   1.916       .  S
O236        C245   1.271       .  A
O237       Ni241   1.890       .  S
O237       Ni259   1.912       .  S
O237       Ni253   1.894       .  S
O237        H260   0.966       .  S
C238        O255   1.262       .  A
C238        O247   1.274       .  A
C238       C2250   1.508       .  S
O239       Ni258   1.941       .  S
O239        C245   1.275       .  A
O240       Ni258   1.898       .  S
O240        C242   1.270       .  A
Ni241       O244   1.951       .  S
Ni241       O246   1.879       .  S
C242        O252   1.269       .  A
C242       C2283   1.463       .  S
O243       Ni259   1.880       .  S
O243        C249   1.265       .  A
O244        C249   1.281       .  A
C245       C2260   1.509       .  S
O246        C248   1.250       .  A
O247       Ni258   1.953       .  S
C248        O254   1.285       .  A
C248       C2240   1.492       .  S
C249       C2220   1.474       .  S
H250        O251   0.966       .  S
O251       Ni259   1.931       .  S
O251       Ni253   1.933       .  S
O251       Ni258   1.953       .  S
O252       Ni253   1.918       .  S
Ni253       O257   1.896       .  S
Ni253       O255   1.893       .  S
O254       Ni259   2.006       .  S
C256        O257   1.263       .  A
C256       C2230   1.464       .  S
O261       Ni267   1.937       .  S
O261        C282   1.282       .  A
O262       Ni285   1.895       .  S
O262        C271   1.266       .  A
O263       Ni267   1.935       .  S
O263       Ni285   1.914       .  S
O263       Ni279   1.954       .  S
O263        H286   0.966       .  S
C264        O281   1.286       .  A
C264        O273   1.289       .  A
C264       C2180   1.471       .  S
O265       Ni284   1.928       .  S
O265        C271   1.272       .  A
O266       Ni284   1.882       .  S
O266        C268   1.248       .  A
Ni267       O270   1.998       .  S
Ni267       O272   1.867       .  S
C268        O278   1.276   1_545  A
C268       C2193   1.509   1_545  S
O269       Ni285   1.892       .  S
O269        C275   1.252       .  A
O270        C275   1.277       .  A
C271       C2233   1.475       .  S
O272        C274   1.261       .  A
O273       Ni284   1.949       .  S
C274        O280   1.284       .  A
C274       C2290   1.444       .  S
C275       C2203   1.508       .  S
H276        O277   0.967       .  S
O277       Ni285   1.861       .  S
O277       Ni279   1.903       .  S
O277       Ni284   1.866       .  S
O278       Ni279   1.989   1_565  S
Ni279       O283   1.939       .  S
Ni279       O281   1.900       .  S
O280       Ni285   1.966       .  S
C282        O283   1.282       .  A
C282       C2213   1.512   1_545  S
O287       Ni293   1.890       .  S
O287        C308   1.261       .  A
O288       Ni311   1.893       .  S
O288        C297   1.269       .  A
O289       Ni293   1.879       .  S
O289       Ni311   1.894       .  S
O289       Ni305   1.892       .  S
O289        H312   0.967       .  S
C290        O307   1.250       .  A
C290        O299   1.269       .  A
C290       C2160   1.468       .  S
O291       Ni310   1.924       .  S
O291        C297   1.274       .  A
O292       Ni310   1.895       .  S
O292        C294   1.273       .  A
Ni293       O296   1.952       .  S
Ni293       O298   1.879       .  S
C294        O304   1.288       .  A
C294       C2273   1.490       .  S
O295       Ni311   1.889       .  S
O295        C301   1.280       .  A
O296        C301   1.289       .  A
C297       C2173   1.482       .  S
O298        C300   1.244       .  A
O299       Ni310   1.953       .  S
C300        O306   1.268       .  A
C300       C2150   1.490   1_545  S
C301       C2183   1.470       .  S
H302        O303   0.966       .  S
O303       Ni311   1.937       .  S
O303       Ni305   1.918       .  S
O303       Ni310   1.930       .  S
O304       Ni305   1.980       .  S
Ni305       O309   1.921       .  S
Ni305       O307   1.880       .  S
O306       Ni311   1.969       .  S
C308        O309   1.261       .  A
C308       C2223   1.472       .  S
O313       Ni319   1.903       .  S
O313        C334   1.261       .  A
O314       Ni337   1.922       .  S
O314        C323   1.277       .  A
O315       Ni319   1.908       .  S
O315       Ni337   1.894       .  S
O315       Ni331   1.916       .  S
O315        H338   0.966       .  S
C316        O333   1.277       .  A
C316        O325   1.284       .  A
C316       C2263   1.511       .  S
O317       Ni336   1.956       .  S
O317        C323   1.281       .  A
O318       Ni336   1.920       .  S
O318        C320   1.271       .  A
Ni319       O322   1.905       .  S
Ni319       O324   1.904       .  S
C320        O330   1.273       .  A
C320       C2313   1.475       .  S
O321       Ni337   1.952       .  S
O321        C327   1.287       .  A
O322        C327   1.275       .  A
C323       C2423   1.502       .  S
O324        C326   1.265       .  A
O325       Ni336   1.956       .  S
C326        O332   1.277       .  A
C326       C2333   1.485       .  S
C327       C2373   1.493       .  S
H328        O329   0.966       .  S
O329       Ni337   1.934       .  S
O329       Ni331   1.912       .  S
O329       Ni336   1.910       .  S
O330       Ni331   1.929       .  S
Ni331       O335   1.920       .  S
Ni331       O333   1.927       .  S
O332       Ni337   1.943       .  S
C334        O335   1.268       .  A
C334       C2163   1.470       .  S
O339       Ni345   1.926       .  S
O339        C360   1.276       .  A
O340       Ni363   1.907       .  S
O340        C349   1.261       .  A
O341       Ni345   1.938       .  S
O341       Ni363   1.908       .  S
O341       Ni357   1.943       .  S
O341        H364   0.966       .  S
C342        O359   1.280       .  A
C342        O351   1.283       .  A
C342       C2110   1.483       .  S
O343       Ni362   1.908       .  S
O343        C349   1.262       .  A
O344       Ni362   1.876       .  S
O344        C346   1.255       .  A
Ni345       O348   1.964       .  S
Ni345       O350   1.889       .  S
C346        O356   1.273       .  A
C346       C2140   1.471       .  S
O347       Ni363   1.885       .  S
O347        C353   1.254       .  A
O348        C353   1.273       .  A
C349       C2100   1.452       .  S
O350        C352   1.267       .  A
O351       Ni362   1.939       .  S
C352        O358   1.278       .  A
C352       C2090   1.460       .  S
C353       C2130   1.479       .  S
H354        O355   0.966       .  S
O355       Ni363   1.884       .  S
O355       Ni357   1.884       .  S
O355       Ni362   1.880       .  S
O356       Ni357   1.951       .  S
Ni357       O361   1.888       .  S
Ni357       O359   1.921       .  S
O358       Ni363   1.947       .  S
C360        O361   1.268       .  A
C360       C2120   1.482       .  S
O365       Ni371   1.904       .  S
O365        C386   1.263       .  A
O366       Ni389   1.885       .  S
O366        C375   1.264       .  A
O367       Ni371   1.878       .  S
O367       Ni389   1.900       .  S
O367       Ni383   1.869       .  S
O367        H390   0.967       .  S
C368        O385   1.255       .  A
C368        O377   1.277       .  A
C368       C2080   1.506       .  S
O369       Ni388   1.941       .  S
O369        C375   1.279       .  A
O370       Ni388   1.880       .  S
O370        C372   1.265       .  A
Ni371       O374   1.960       .  S
Ni371       O376   1.874       .  S
C372        O382   1.288       .  A
C372       C2050   1.473       .  S
O373       Ni389   1.872       .  S
O373        C379   1.273       .  A
O374        C379   1.287       .  A
C375       C2073   1.493       .  S
O376        C378   1.238       .  A
O377       Ni388   1.976       .  S
C378        O384   1.269       .  A
C378       C2060   1.490       .  S
C379       C2093   1.472       .  S
H380        O381   0.966       .  S
O381       Ni389   1.934       .  S
O381       Ni383   1.929       .  S
O381       Ni388   1.934       .  S
O382       Ni383   1.981       .  S
Ni383       O387   1.899       .  S
Ni383       O385   1.891       .  S
O384       Ni389   1.983       .  S
C386        O387   1.268       .  A
C386       C2040   1.459       .  S
O391       Ni397   1.940       .  S
O391        C412   1.276       .  A
O392       Ni415   1.929       .  S
O392        C401   1.262       .  A
O393       Ni397   1.944       .  S
O393       Ni415   1.935       .  S
O393       Ni409   1.947       .  S
O393        H416   0.966       .  S
C394        O411   1.279       .  A
C394        O403   1.284       .  A
C394       C2000   1.472       .  S
O395       Ni414   1.881       .  S
O395        C401   1.258       .  A
O396       Ni414   1.887       .  S
O396        C398   1.251       .  A
Ni397       O400   1.960       .  S
Ni397       O402   1.888       .  S
C398        O408   1.271       .  A
C398       C2030   1.486       .  S
O399       Ni415   1.890       .  S
O399        C405   1.258       .  A
O400        C405   1.272       .  A
C401       C2053   1.481       .  S
O402        C404   1.271       .  A
O403       Ni414   1.936       .  S
C404        O410   1.277       .  A
C404       C2103   1.465       .  S
C405       C2013   1.491       .  S
H406        O407   0.967       .  S
O407       Ni415   1.901       .  S
O407       Ni409   1.888       .  S
O407       Ni414   1.891       .  S
O408       Ni409   1.971       .  S
Ni409       O413   1.895       .  S
Ni409       O411   1.898       .  S
O410       Ni415   1.948       .  S
C412        O413   1.268       .  A
C412       C2023   1.496       .  S
O417       Ni423   1.889       .  S
O417        C438   1.260       .  A
O418       Ni441   1.902       .  S
O418        C427   1.270       .  A
O419       Ni423   1.862       .  S
O419       Ni441   1.887       .  S
O419       Ni435   1.879       .  S
O419        H442   0.967       .  S
C420        O437   1.256       .  A
C420        O429   1.268       .  A
C420       C1970   1.488       .  S
O421       Ni440   1.921       .  S
O421        C427   1.274       .  A
O422       Ni440   1.897       .  S
O422        C424   1.277       .  A
Ni423       O426   1.954       .  S
Ni423       O428   1.877       .  S
C424        O434   1.292       .  A
C424       C2113   1.485       .  S
O425       Ni441   1.886       .  S
O425        C431   1.282       .  A
O426        C431   1.292       .  A
C427       C1983   1.483       .  S
O428        C430   1.241       .  A
O429       Ni440   1.948       .  S
C430        O436   1.269       .  A
C430       C1990   1.495       .  S
C431       C2003   1.471       .  S
H432        O433   0.966       .  S
O433       Ni441   1.949       .  S
O433       Ni435   1.920       .  S
O433       Ni440   1.922       .  S
O434       Ni435   1.986       .  S
Ni435       O439   1.915       .  S
Ni435       O437   1.890       .  S
O436       Ni441   1.982       .  S
C438        O439   1.270       .  A
C438       C2043   1.456       .  S
O443       Ni449   1.907       .  S
O443        C464   1.269       .  A
O444       Ni467   1.927       .  S
O444        C453   1.262       .  A
O445       Ni449   1.926       .  S
O445       Ni467   1.922       .  S
O445       Ni461   1.940       .  S
O445        H468   0.966       .  S
C446        O463   1.278       .  A
C446        O455   1.285       .  A
C446       C1930   1.465       .  S
O447       Ni466   1.883       .  S
O447        C453   1.260       .  A
O448       Ni466   1.888       .  S
O448        C450   1.249       .  A
Ni449       O452   1.932       .  S
Ni449       O454   1.909       .  S
C450        O460   1.269       .  A
C450       C1940   1.478       .  S
O451       Ni467   1.881       .  S
O451        C457   1.252       .  A
O452        C457   1.267       .  A
C453       C1910   1.482       .  S
O454        C456   1.275       .  A
O455       Ni466   1.938       .  S
C456        O462   1.283       .  A
C456       C1920   1.486       .  S
C457       C1960   1.461       .  S
H458        O459   0.967       .  S
O459       Ni467   1.892       .  S
O459       Ni461   1.891       .  S
O459       Ni466   1.881       .  S
O460       Ni461   1.961       .  S
Ni461       O465   1.900       .  S
Ni461       O463   1.891       .  S
O462       Ni467   1.963       .  S
C464        O465   1.267       .  A
C464       C1950   1.464       .  S
O469       Ni475   1.903       .  S
O469        C490   1.255       .  A
O470       Ni493   1.903       .  S
O470        C479   1.273       .  A
O471       Ni475   1.881       .  S
O471       Ni493   1.904       .  S
O471       Ni487   1.892       .  S
O471        H494   0.965       .  S
C472        O489   1.253       .  A
C472        O481   1.276       .  A
C472       C1900   1.493       .  S
O473       Ni492   1.940       .  S
O473        C479   1.280       .  A
O474       Ni492   1.887       .  S
O474        C476   1.266       .  A
Ni475       O478   1.965       .  S
Ni475       O480   1.867       .  S
C476        O486   1.276       .  A
C476       C1860   1.454       .  S
O477       Ni493   1.905       .  S
O477        C483   1.279       .  A
O478        C483   1.289       .  A
C479       C1890   1.496       .  S
O480        C482   1.238       .  A
O481       Ni492   1.978       .  S
C482        O488   1.273       .  A
C482       C1883   1.482       .  S
C483       C1923   1.492       .  S
H484        O485   0.966       .  S
O485       Ni493   1.947       .  S
O485       Ni487   1.918       .  S
O485       Ni492   1.947       .  S
O486       Ni487   1.943       .  S
Ni487       O491   1.898       .  S
Ni487       O489   1.888       .  S
O488       Ni493   1.993       .  S
C490        O491   1.257       .  A
C490       C1870   1.437       .  S
O495       Ni501   1.935       .  S
O495        C516   1.278       .  A
O496       Ni519   1.888       .  S
O496        C505   1.263   1_455  A
O497       Ni501   1.948       .  S
O497       Ni519   1.913       .  S
O497       Ni513   1.929       .  S
O497        H520   0.966       .  S
C498        O515   1.268       .  A
C498        O507   1.288       .  A
C498       C1913   1.483       .  S
O499       Ni518   1.932       .  S
O499        C505   1.272   1_455  A
O500       Ni518   1.878       .  S
O500        C502   1.249       .  A
Ni501       O504   1.966       .  S
Ni501       O506   1.891       .  S
C502        O512   1.281       .  A
C502       C1833   1.494       .  S
O503       Ni519   1.889   1_655  S
O503        C509   1.254   1_655  A
O504        C509   1.272       .  A
C505       C1820   1.462       .  S
O506        C508   1.269       .  A
O507       Ni518   1.970       .  S
C508        O514   1.281       .  A
C508       C1863   1.461       .  S
C509       C1850   1.494   1_455  S
H510        O511   0.951       .  S
O511       Ni519   1.879       .  S
O511       Ni513   1.902       .  S
O511       Ni518   1.874       .  S
O512       Ni513   2.000       .  S
Ni513       O517   1.902       .  S
Ni513       O515   1.880       .  S
O514       Ni519   1.959       .  S
C516        O517   1.271       .  A
C516       C1840   1.496       .  S
O521       Ni527   1.930   1_655  S
O521        C542   1.271       .  A
O522       Ni545   1.930       .  S
O522        C531   1.279       .  A
O523       Ni527   1.864       .  S
O523       Ni545   1.904       .  S
O523       Ni539   1.866       .  S
O523        H546   0.967       .  S
C524        O541   1.256       .  A
C524        O533   1.274       .  A
C524       C1810   1.506       .  S
O525       Ni544   1.934       .  S
O525        C531   1.280       .  A
O526       Ni544   1.881       .  S
O526        C528   1.264       .  A
Ni527       O530   1.951       .  S
Ni527       O532   1.882       .  S
C528        O538   1.272       .  A
C528       C1873   1.449       .  S
O529       Ni545   1.886       .  S
O529        C535   1.278       .  A
O530        C535   1.288       .  A
C531       C1803   1.511       .  S
O532        C534   1.249       .  A
O533       Ni544   1.989       .  S
C534        O540   1.279       .  A
C534       C1790   1.504       .  S
C535       C1933   1.469       .  S
H536        O537   0.966       .  S
O537       Ni545   1.950       .  S
O537       Ni539   1.913       .  S
O537       Ni544   1.955       .  S
O538       Ni539   1.919       .  S
Ni539       O543   1.894       .  S
Ni539       O541   1.895       .  S
O540       Ni545   1.998       .  S
C542        O543   1.262   1_655  A
C542       C1823   1.475       .  S
O547       Ni553   1.931       .  S
O547        C568   1.273       .  A
O548       Ni571   1.905       .  S
O548        C557   1.265       .  A
O549       Ni553   1.902       .  S
O549       Ni571   1.897       .  S
O549       Ni565   1.925       .  S
O549        H572   0.966       .  S
C550        O567   1.290       .  A
C550        O559   1.275       .  A
C550       C2070   1.496       .  S
O551       Ni570   1.901       .  S
O551        C557   1.259       .  A
O552       Ni570   1.895       .  S
O552        C554   1.265       .  A
Ni553       O556   1.943       .  S
Ni553       O558   1.919       .  S
C554        O564   1.277       .  A
C554       C2010   1.498       .  S
O555       Ni571   1.916       .  S
O555        C561   1.277       .  A
O556        C561   1.282       .  A
C557       C1963   1.452       .  S
O558        C560   1.271       .  A
O559       Ni570   1.901       .  S
C560        O566   1.272       .  A
C560       C1893   1.497       .  S
C561       C1843   1.496       .  S
H562        O563   0.966       .  S
O563       Ni571   1.915       .  S
O563       Ni565   1.887       .  S
O563       Ni570   1.893       .  S
O564       Ni565   1.955       .  S
Ni565       O569   1.913       .  S
Ni565       O567   1.960       .  S
O566       Ni571   1.930       .  S
C568        O569   1.275       .  A
C568       C2133   1.468       .  S
O573       Ni579   1.937       .  S
O573        C594   1.274       .  A
O574       Ni597   1.903       .  S
O574        C583   1.268       .  A
O575       Ni579   1.913       .  S
O575       Ni597   1.900       .  S
O575       Ni591   1.901       .  S
O575        H598   0.966       .  S
C576        O593   1.272       .  A
C576        O585   1.266       .  A
C576       C2483   1.485       .  S
O577       Ni596   1.906       .  S
O577        C583   1.265       .  A
O578       Ni596   1.910       .  S
O578        C580   1.273       .  A
Ni579       O582   1.936       .  S
Ni579       O584   1.929       .  S
C580        O590   1.282       .  A
C580       C2433   1.494       .  S
O581       Ni597   1.928       .  S
O581        C587   1.277       .  A
O582        C587   1.280       .  A
C583       C1953   1.456       .  S
O584        C586   1.274       .  A
O585       Ni596   1.920       .  S
C586        O592   1.277       .  A
C586       C1800   1.512       .  S
C587       C1880   1.500       .  S
H588        O589   0.966       .  S
O589       Ni597   1.937       .  S
O589       Ni591   1.915       .  S
O589       Ni596   1.926       .  S
O590       Ni591   1.956       .  S
Ni591       O595   1.917       .  S
Ni591       O593   1.924       .  S
O592       Ni597   1.950       .  S
C594        O595   1.271       .  A
C594       C2380   1.487       .  S
O599       Ni605   1.917       .  S
O599        C620   1.268       .  A
O600       Ni623   1.935       .  S
O600        C609   1.261       .  A
O601       Ni605   1.947       .  S
O601       Ni623   1.922       .  S
O601       Ni617   1.930       .  S
O601        H624   0.966       .  S
C602        O619   1.274       .  A
C602        O611   1.286       .  A
C602       C1730   1.471       .  S
O603       Ni622   1.888       .  S
O603        C609   1.259       .  A
O604       Ni622   1.884       .  S
O604        C606   1.250       .  A
Ni605       O608   1.941       .  S
Ni605       O610   1.924       .  S
C606        O616   1.271       .  A
C606       C1770   1.475       .  S
O607       Ni623   1.879       .  S
O607        C613   1.253       .  A
O608        C613   1.269       .  A
C609       C1750   1.485       .  S
O610        C612   1.275       .  A
O611       Ni622   1.946       .  S
C612        O618   1.276       .  A
C612       C1743   1.491       .  S
C613       C1760   1.456       .  S
H614        O615   0.967       .  S
O615       Ni623   1.899       .  S
O615       Ni617   1.892       .  S
O615       Ni622   1.889       .  S
O616       Ni617   1.958       .  S
Ni617       O621   1.893       .  S
Ni617       O619   1.887       .  S
O618       Ni623   1.950       .  S
C620        O621   1.267       .  A
C620       C1780   1.467       .  S
O625       Ni631   1.942       .  S
O625        C646   1.273       .  A
O626       Ni649   1.910       .  S
O626        C635   1.273       .  A
O627       Ni631   1.899       .  S
O627       Ni649   1.911       .  S
O627       Ni643   1.895       .  S
O627        H650   0.966       .  S
C628        O645   1.256   1_554  A
C628        O637   1.273       .  A
C628       C1700   1.503   1_554  S
O629       Ni648   1.941       .  S
O629        C635   1.280       .  A
O630       Ni648   1.884       .  S
O630        C632   1.268       .  A
Ni631       O634   1.959       .  S
Ni631       O636   1.886       .  S
C632        O642   1.270       .  A
C632       C1690   1.462       .  S
O633       Ni649   1.911       .  S
O633        C639   1.276       .  A
O634        C639   1.282       .  A
C635       C1710   1.502       .  S
O636        C638   1.257       .  A
O637       Ni648   1.970       .  S
C638        O644   1.280       .  A
C638       C1720   1.484       .  S
C639       C1740   1.494       .  S
H640        O641   0.966       .  S
O641       Ni649   1.934       .  S
O641       Ni643   1.909       .  S
O641       Ni648   1.943       .  S
O642       Ni643   1.924       .  S
Ni643       O647   1.857       .  S
Ni643       O645   1.886   1_554  S
O644       Ni649   1.976       .  S
C646        O647   1.250       .  A
C646       C1680   1.459   1_554  S
O651       Ni657   1.938       .  S
O651        C672   1.276       .  A
O652       Ni675   1.894       .  S
O652        C661   1.259       .  A
O653       Ni657   1.946       .  S
O653       Ni675   1.906       .  S
O653       Ni669   1.895       .  S
O653        H676   0.966       .  S
C654        O671   1.257       .  A
C654        O663   1.281       .  A
C654       C1733   1.460       .  S
O655       Ni674   1.904       .  S
O655        C661   1.268       .  A
O656       Ni674   1.876       .  S
O656        C658   1.236       .  A
Ni657       O660   1.960       .  S
Ni657       O662   1.910       .  S
C658        O668   1.277       .  A
C658       C1670   1.503       .  S
O659       Ni675   1.884       .  S
O659        C665   1.256       .  A
O660        C665   1.275       .  A
C661       C1683   1.460   1_554  S
O662        C664   1.270       .  A
O663       Ni674   1.970       .  S
C664        O670   1.273       .  A
C664       C1640   1.487       .  S
C665       C1650   1.483       .  S
H666        O667   0.965       .  S
O667       Ni675   1.917       .  S
O667       Ni669   1.932       .  S
O667       Ni674   1.887       .  S
O668       Ni669   2.016       .  S
Ni669       O673   1.889       .  S
Ni669       O671   1.854       .  S
O670       Ni675   1.949       .  S
C672        O673   1.265       .  A
C672       C1660   1.488       .  S
O677       Ni683   1.913       .  S
O677        C698   1.262       .  A
O678       Ni701   1.895       .  S
O678        C687   1.269       .  A
O679       Ni683   1.884       .  S
O679       Ni701   1.893       .  S
O679       Ni695   1.887       .  S
O679        H702   0.967       .  S
C680        O697   1.251       .  A
C680        O689   1.273       .  A
C680       C1613   1.489       .  S
O681       Ni700   1.938       .  S
O681        C687   1.280       .  A
O682       Ni700   1.888       .  S
O682        C684   1.270       .  A
Ni683       O686   1.974       .  S
Ni683       O688   1.879       .  S
C684        O694   1.287       .  A
C684       C1643   1.487       .  S
O685       Ni701   1.889       .  S
O685        C691   1.277       .  A
O686        C691   1.291       .  A
C687       C1630   1.490       .  S
O688        C690   1.244       .  A
O689       Ni700   1.976       .  S
C690        O696   1.271       .  A
C690       C1620   1.484       .  S
C691       C1753   1.489       .  S
H692        O693   0.966       .  S
O693       Ni701   1.937       .  S
O693       Ni695   1.909       .  S
O693       Ni700   1.934       .  S
O694       Ni695   1.978       .  S
Ni695       O699   1.898       .  S
Ni695       O697   1.884       .  S
O696       Ni701   1.979       .  S
C698        O699   1.262       .  A
C698       C1693   1.455       .  S
O703       Ni709   1.913       .  S
O703        C724   1.271       .  A
O704       Ni727   1.938       .  S
O704        C713   1.264       .  A
O705       Ni709   1.929       .  S
O705       Ni727   1.924       .  S
O705       Ni721   1.947       .  S
O705        H728   0.966       .  S
C706        O723   1.286       .  A
C706        O715   1.282       .  A
C706       C1560   1.461       .  S
O707       Ni726   1.881       .  S
O707        C713   1.259       .  A
O708       Ni726   1.891       .  S
O708        C710   1.254       .  A
Ni709       O712   1.937       .  S
Ni709       O714   1.908       .  S
C710        O720   1.271       .  A
C710       C1580   1.477       .  S
O711       Ni727   1.886       .  S
O711        C717   1.254       .  A
O712        C717   1.267       .  A
C713       C1570   1.495       .  S
O714        C716   1.276       .  A
O715       Ni726   1.927       .  S
C716        O722   1.280       .  A
C716       C1550   1.478       .  S
C717       C1590   1.470       .  S
H718        O719   0.967       .  S
O719       Ni727   1.895       .  S
O719       Ni721   1.891       .  S
O719       Ni726   1.890       .  S
O720       Ni721   1.954       .  S
Ni721       O725   1.925       .  S
Ni721       O723   1.909       .  S
O722       Ni727   1.947       .  S
C724        O725   1.276       .  A
C724       C1600   1.493       .  S
O729       Ni735   1.945       .  S
O729        C750   1.276       .  A
O730       Ni753   1.873       .  S
O730        C739   1.253       .  A
O731       Ni735   1.959       .  S
O731       Ni753   1.902       .  S
O731       Ni747   1.913       .  S
O731        H754   0.966       .  S
C732        O749   1.264       .  A
C732        O741   1.285       .  A
C732       C1573   1.482       .  S
O733       Ni752   1.925       .  S
O733        C739   1.271       .  A
O734       Ni752   1.877       .  S
O734        C736   1.242       .  A
Ni735       O738   1.970       .  S
Ni735       O740   1.893       .  S
C736        O746   1.280       .  A
C736       C1520   1.505       .  S
O737       Ni753   1.892       .  S
O737        C743   1.261       .  A
O738        C743   1.278       .  A
C739       C1500   1.451       .  S
O740        C742   1.265       .  A
O741       Ni752   1.983       .  S
C742        O748   1.268       .  A
C742       C1510   1.468       .  S
C743       C1540   1.508       .  S
H744        O745   0.966       .  S
O745       Ni753   1.920       .  S
O745       Ni747   1.926       .  S
O745       Ni752   1.899       .  S
O746       Ni747   2.020       .  S
Ni747       O751   1.882       .  S
Ni747       O749   1.889       .  S
O748       Ni753   1.922       .  S
C750        O751   1.264       .  A
C750       C1530   1.489       .  S
O755       Ni761   1.936       .  S
O755        C776   1.274       .  A
O756       Ni779   1.912       .  S
O756        C765   1.275       .  A
O757       Ni761   1.874       .  S
O757       Ni779   1.894       .  S
O757       Ni773   1.876       .  S
O757        H780   0.966       .  S
C758        O775   1.250   1_455  A
C758        O767   1.269       .  A
C758       C1480   1.481       .  S
O759       Ni778   1.918       .  S
O759        C765   1.274       .  A
O760       Ni778   1.901       .  S
O760        C762   1.274       .  A
Ni761       O764   1.964       .  S
Ni761       O766   1.886       .  S
C762        O772   1.289       .  A
C762       C1460   1.495       .  S
O763       Ni779   1.878       .  S
O763        C769   1.275       .  A
O764        C769   1.291       .  A
C765       C1490   1.484       .  S
O766        C768   1.253       .  A
O767       Ni778   1.958   1_455  S
C768        O774   1.280       .  A
C768       C1470   1.502       .  S
C769       C1563   1.467       .  S
H770        O771   0.966       .  S
O771       Ni779   1.933       .  S
O771       Ni773   1.902       .  S
O771       Ni778   1.935       .  S
O772       Ni773   1.986       .  S
Ni773       O777   1.881       .  S
Ni773       O775   1.887       .  S
O774       Ni779   1.988       .  S
C776        O777   1.262       .  A
C776       C1503   1.469       .  S
O781       Ni787   1.935   1_655  S
O781        C802   1.277       .  A
O782       Ni805   1.888       .  S
O782        C791   1.259       .  A
O783       Ni787   1.937   1_655  S
O783       Ni805   1.904       .  S
O783       Ni799   1.924       .  S
O783        H806   0.966       .  S
C784        O801   1.273       .  A
C784        O793   1.284       .  A
C784       C1553   1.482       .  S
O785       Ni804   1.917       .  S
O785        C791   1.264       .  A
O786       Ni804   1.885       .  S
O786        C788   1.251       .  A
Ni787       O790   1.971       .  S
Ni787       O792   1.900   1_455  S
C788        O798   1.274       .  A
C788       C1430   1.476       .  S
O789       Ni805   1.879       .  S
O789        C795   1.251   1_655  A
O790        C795   1.275       .  A
C791       C1513   1.460       .  S
O792        C794   1.270       .  A
O793       Ni804   1.955       .  S
C794        O800   1.282       .  A
C794       C1463   1.493       .  S
C795       C1440   1.481       .  S
H796        O797   0.966       .  S
O797       Ni805   1.885       .  S
O797       Ni799   1.900       .  S
O797       Ni804   1.897       .  S
O798       Ni799   1.966       .  S
Ni799       O803   1.890       .  S
Ni799       O801   1.890       .  S
O800       Ni805   1.974       .  S
C802        O803   1.267       .  A
C802       C1450   1.484       .  S
O807       Ni813   1.942       .  S
O807        C828   1.279       .  A
O808       Ni831   1.915       .  S
O808        C817   1.265       .  A
O809       Ni813   1.892       .  S
O809       Ni831   1.893       .  S
O809       Ni825   1.919       .  S
O809        H832   0.966       .  S
C810        O827   1.291       .  A
C810        O819   1.273       .  A
C810       C1533   1.474       .  S
O811       Ni830   1.888       .  S
O811        C817   1.254       .  A
O812       Ni830   1.892       .  S
O812        C814   1.262       .  A
Ni813       O816   1.943       .  S
Ni813       O818   1.931       .  S
C814        O824   1.264       .  A
C814       C1593   1.473       .  S
O815       Ni831   1.916       .  S
O815        C821   1.277       .  A
O816        C821   1.284       .  A
C817       C1763   1.454       .  S
O818        C820   1.275       .  A
O819       Ni830   1.891       .  S
C820        O826   1.272       .  A
C820       C1713   1.499       .  S
C821       C1623   1.495       .  S
H822        O823   0.966       .  S
O823       Ni831   1.925       .  S
O823       Ni825   1.888       .  S
O823       Ni830   1.902       .  S
O824       Ni825   1.914       .  S
Ni825       O829   1.898       .  S
Ni825       O827   1.966       .  S
O826       Ni831   1.925       .  S
C828        O829   1.272       .  A
C828       C1433   1.478       .  S
O833       Ni839   1.910       .  S
O833        C854   1.264   1_554  A
O834       Ni857   1.919       .  S
O834        C843   1.271       .  A
O835       Ni839   1.914   1_556  S
O835       Ni857   1.904       .  S
O835       Ni851   1.931       .  S
O835        H858   0.966       .  S
C836        O853   1.287       .  A
C836        O845   1.279       .  A
C836       C2613   1.499       .  S
O837       Ni856   1.915       .  S
O837        C843   1.265       .  A
O838       Ni856   1.907       .  S
O838        C840   1.266       .  A
Ni839       O842   1.915       .  S
Ni839       O844   1.909       .  S
C840        O850   1.271       .  A
C840       C2683   1.491       .  S
O841       Ni857   1.960       .  S
O841        C847   1.288       .  A
O842        C847   1.275   1_554  A
C843       C1653   1.467       .  S
O844        C846   1.268       .  A
O845       Ni856   1.929       .  S
C846        O852   1.275       .  A
C846       C1610   1.499       .  S
C847       C1703   1.501       .  S
H848        O849   0.966   1_554  S
O849       Ni857   1.939       .  S
O849       Ni851   1.899       .  S
O849       Ni856   1.917       .  S
O850       Ni851   1.926       .  S
Ni851       O855   1.912       .  S
Ni851       O853   1.953       .  S
O852       Ni857   1.941   1_554  S
C854        O855   1.269       .  A
C854       C2523   1.470       .  S
O859       Ni865   1.888       .  S
O859        C880   1.257       .  A
O860       Ni883   1.879       .  S
O860        C869   1.261       .  A
O861       Ni865   1.883       .  S
O861       Ni883   1.878       .  S
O861       Ni877   1.904       .  S
O861        H884   0.966       .  S
C862        O879   1.257       .  A
C862        O871   1.275       .  A
C862       C1420   1.483       .  S
O863       Ni882   1.929       .  S
O863        C869   1.273       .  A
O864       Ni882   1.922       .  S
O864        C866   1.271       .  A
Ni865       O868   1.949       .  S
Ni865       O870   1.879       .  S
C866        O876   1.273       .  A
C866       C1370   1.482       .  S
O867       Ni883   1.879       .  S
O867        C873   1.271       .  A
O868        C873   1.288       .  A
C869       C1410   1.480       .  S
O870        C872   1.252       .  A
O871       Ni882   1.950       .  S
C872        O878   1.272       .  A
C872       C1400   1.473       .  S
C873       C1383   1.461       .  S
H874        O875   0.966       .  S
O875       Ni883   1.930       .  S
O875       Ni877   1.932       .  S
O875       Ni882   1.946       .  S
O876       Ni877   1.944       .  S
Ni877       O881   1.927       .  S
Ni877       O879   1.886       .  S
O878       Ni883   1.958       .  S
C880        O881   1.259       .  A
C880       C1390   1.476       .  S
O885       Ni891   1.932       .  S
O885        C906   1.271       .  A
O886       Ni909   1.897       .  S
O886        C895   1.269       .  A
O887       Ni891   1.901       .  S
O887       Ni909   1.915       .  S
O887       Ni903   1.897       .  S
O887        H910   0.966       .  S
C888        O905   1.255       .  A
C888        O897   1.276   1_545  A
C888       C1350   1.503   1_545  S
O889       Ni908   1.937   1_545  S
O889        C895   1.277       .  A
O890       Ni908   1.879   1_545  S
O890        C892   1.264       .  A
Ni891       O894   1.948       .  S
Ni891       O896   1.886       .  S
C892        O902   1.275       .  A
C892       C1333   1.469       .  S
O893       Ni909   1.914       .  S
O893        C899   1.275       .  A
O894        C899   1.280       .  A
C895       C1340   1.485       .  S
O896        C898   1.256       .  A
O897       Ni908   1.972       .  S
C898        O904   1.277       .  A
C898       C1360   1.483       .  S
C899       C1373   1.490       .  S
H900        O901   0.966       .  S
O901       Ni909   1.927       .  S
O901       Ni903   1.905       .  S
O901       Ni908   1.941   1_545  S
O902       Ni903   1.946       .  S
Ni903       O907   1.873       .  S
Ni903       O905   1.887       .  S
O904       Ni909   1.967       .  S
C906        O907   1.254       .  A
C906       C1323   1.459       .  S
O911       Ni917   1.923       .  S
O911        C932   1.277       .  A
O912       Ni935   1.888       .  S
O912        C921   1.262       .  A
O913       Ni917   1.932       .  S
O913       Ni935   1.903       .  S
O913       Ni929   1.929       .  S
O913        H936   0.966       .  S
C914        O931   1.275       .  A
C914        O923   1.289       .  A
C914       C1393   1.480       .  S
O915       Ni934   1.933       .  S
O915        C921   1.273       .  A
O916       Ni934   1.879       .  S
O916        C918   1.245       .  A
Ni917       O920   1.964   1_554  S
Ni917       O922   1.896       .  S
C918        O928   1.276       .  A
C918       C1310   1.507       .  S
O919       Ni935   1.884       .  S
O919        C925   1.249   1_554  A
O920        C925   1.270       .  A
C921       C1320   1.468       .  S
O922        C924   1.272       .  A
O923       Ni934   1.978       .  S
C924        O930   1.288       .  A
C924       C1283   1.494       .  S
C925       C1300   1.483       .  S
H926        O927   0.967       .  S
O927       Ni935   1.877       .  S
O927       Ni929   1.905       .  S
O927       Ni934   1.879       .  S
O928       Ni929   2.004       .  S
Ni929       O933   1.920       .  S
Ni929       O931   1.875       .  S
O930       Ni935   1.982       .  S
C932        O933   1.276       .  A
C932       C1290   1.495       .  S
O937       Ni943   1.900   1_565  S
O937        C958   1.260       .  A
O938       Ni961   1.884       .  S
O938        C947   1.265       .  A
O939       Ni943   1.879       .  S
O939       Ni961   1.891       .  S
O939       Ni955   1.886       .  S
O939        H962   0.967       .  S
C940        O957   1.254   1_556  A
C940        O949   1.270   1_565  A
C940       C1273   1.475       .  S
O941       Ni960   1.929       .  S
O941        C947   1.274   1_556  A
O942       Ni960   1.907   1_554  S
O942        C944   1.275       .  A
Ni943       O946   1.963       .  S
Ni943       O948   1.878       .  S
C944        O954   1.283       .  A
C944       C1280   1.494       .  S
O945       Ni961   1.872       .  S
O945        C951   1.273       .  A
O946        C951   1.291       .  A
C947       C1250   1.481       .  S
O948        C950   1.244       .  A
O949       Ni960   1.954       .  S
C950        O956   1.268       .  A
C950       C1260   1.482       .  S
C951       C1380   1.470       .  S
H952        O953   0.966       .  S
O953       Ni961   1.931       .  S
O953       Ni955   1.919       .  S
O953       Ni960   1.938   1_554  S
O954       Ni955   1.967       .  S
Ni955       O959   1.913   1_545  S
Ni955       O957   1.883   1_545  S
O956       Ni961   1.970       .  S
C958        O959   1.263       .  A
C958       C1330   1.467       .  S
O963       Ni969   1.918       .  S
O963        C984   1.266       .  A
O964       Ni987   1.950       .  S
O964        C973   1.277       .  A
O965       Ni969   1.906       .  S
O965       Ni987   1.920   1_554  S
O965       Ni981   1.911       .  S
O965        H988   0.966       .  S
C966        O983   1.278   1_556  A
C966        O975   1.276       .  A
C966       C1253   1.483       .  S
O967       Ni986   1.909       .  S
O967        C973   1.262       .  A
O968       Ni986   1.903       .  S
O968        C970   1.267       .  A
Ni969       O972   1.907       .  S
Ni969       O974   1.903       .  S
C970        O980   1.273   1_556  A
C970       C1293   1.492   1_556  S
O971       Ni987   1.941       .  S
O971        C977   1.285   1_556  A
O972        C977   1.275       .  A
C973       C2393   1.487       .  S
O974        C976   1.267   1_554  A
O975       Ni986   1.913       .  S
C976        O982   1.273       .  A
C976       C2343   1.489       .  S
C977       C2493   1.488       .  S
H978        O979   0.966       .  S
O979       Ni987   1.917       .  S
O979       Ni981   1.908   1_556  S
O979       Ni986   1.904       .  S
O980       Ni981   1.939       .  S
Ni981       O985   1.924       .  S
Ni981       O983   1.920       .  S
O982       Ni987   1.932       .  S
C984        O985   1.272       .  A
C984       C1403   1.478       .  S
O989       Ni995   1.914       .  S
O989       C1010   1.264   1_565  A
O990      Ni1013   1.927       .  S
O990        C999   1.273       .  A
O991       Ni995   1.912       .  S
O991      Ni1013   1.910       .  S
O991      Ni1007   1.911   1_565  S
O991       H1014   0.966       .  S
C992       O1009   1.279       .  A
C992       O1001   1.277       .  A
C992       C1413   1.482       .  S
O993      Ni1012   1.925   1_565  S
O993        C999   1.268       .  A
O994      Ni1012   1.906       .  S
O994        C996   1.269       .  A
Ni995       O998   1.921       .  S
Ni995      O1000   1.897       .  S
C996       O1006   1.279       .  A
C996       C1343   1.487       .  S
O997      Ni1013   1.919       .  S
O997       C1003   1.280       .  A
O998       C1003   1.275       .  A
C999       C2020   1.482       .  S
O1000      C1002   1.265       .  A
O1001     Ni1012   1.914       .  S
C1002      O1008   1.271       .  A
C1002      C1980   1.483       .  S
C1003      C2143   1.473       .  S
H1004      O1005   0.966       .  S
O1005     Ni1013   1.910   1_545  S
O1005     Ni1007   1.904       .  S
O1005     Ni1012   1.900       .  S
O1006     Ni1007   1.944       .  S
Ni1007     O1011   1.934       .  S
Ni1007     O1009   1.921       .  S
O1008     Ni1013   1.928       .  S
C1010      O1011   1.275       .  A
C1010      C1263   1.476       .  S
O1015     Ni1021   1.918   1_556  S
O1015      C1036   1.264       .  A
O1016     Ni1039   1.922       .  S
O1016      C1025   1.271       .  A
O1017     Ni1021   1.910       .  S
O1017     Ni1039   1.907   1_565  S
O1017     Ni1033   1.922   1_554  S
O1017      H1040   0.966   1_455  S
C1018      O1035   1.283   1_655  A
C1018      O1027   1.278   1_565  A
C1018      C2573   1.503       .  S
O1019     Ni1038   1.917       .  S
O1019      C1025   1.267   1_656  A
O1020     Ni1038   1.909       .  S
O1020      C1022   1.270   1_545  A
Ni1021     O1024   1.919       .  S
Ni1021     O1026   1.899       .  S
C1022      O1032   1.276       .  A
C1022      C2623   1.498       .  S
O1023     Ni1039   1.956       .  S
O1023      C1029   1.289   1_545  A
O1024      C1029   1.278       .  A
C1025      C1303   1.478   1_554  S
O1026      C1028   1.264       .  A
O1027     Ni1038   1.929       .  S
C1028      O1034   1.269       .  A
C1028      C1270   1.485       .  S
C1029      C1353   1.501       .  S
H1030      O1031   0.966   1_545  S
O1031     Ni1039   1.930   1_566  S
O1031     Ni1033   1.904       .  S
O1031     Ni1038   1.907   1_465  S
O1032     Ni1033   1.941   1_655  S
Ni1033     O1037   1.923   1_455  S
Ni1033     O1035   1.940       .  S
O1034     Ni1039   1.923   1_565  S
C1036      O1037   1.272   1_455  A
C1036      C2533   1.469       .  S
O1041     Ni1047   1.907       .  S
O1041      C1062   1.263       .  A
O1042     Ni1065   1.932       .  S
O1042      C1051   1.274       .  A
O1043     Ni1047   1.912       .  S
O1043     Ni1065   1.901       .  S
O1043     Ni1059   1.922       .  S
O1043      H1066   0.966       .  S
C1044      O1061   1.281       .  A
C1044      O1053   1.281       .  A
C1044      C1543   1.508       .  S
O1045     Ni1064   1.939       .  S
O1045      C1051   1.272       .  A
O1046     Ni1064   1.914       .  S
O1046      C1048   1.269       .  A
Ni1047     O1050   1.905       .  S
Ni1047     O1052   1.906       .  S
C1048      O1058   1.271       .  A
C1048      C1443   1.490       .  S
O1049     Ni1065   1.937       .  S
O1049      C1055   1.284       .  A
O1050      C1055   1.275       .  A
C1051      C1313   1.488       .  S
O1052      C1054   1.266       .  A
O1053     Ni1064   1.945   1_655  S
C1054      O1060   1.274       .  A
C1054      C1363   1.475       .  S
C1055      C1423   1.479       .  S
H1056      O1057   0.966       .  S
O1057     Ni1065   1.926       .  S
O1057     Ni1059   1.919       .  S
O1057     Ni1064   1.917       .  S
O1058     Ni1059   1.927       .  S
Ni1059     O1063   1.928       .  S
Ni1059     O1061   1.934   1_455  S
O1060     Ni1065   1.932       .  S
C1062      O1063   1.271       .  A
C1062      C1483   1.480       .  S
O1067     Ni1073   1.922       .  S
O1067      C1088   1.269       .  A
O1068     Ni1091   1.928       .  S
O1068      C1077   1.273       .  A
O1069     Ni1073   1.901       .  S
O1069     Ni1091   1.897       .  S
O1069     Ni1085   1.912       .  S
O1069      H1092   0.966       .  S
C1070      O1087   1.282       .  A
C1070      O1079   1.274       .  A
C1070      C1633   1.489       .  S
O1071     Ni1090   1.913       .  S
O1071      C1077   1.264       .  A
O1072     Ni1090   1.903       .  S
O1072      C1074   1.267       .  A
Ni1073     O1076   1.918       .  S
Ni1073     O1078   1.913       .  S
C1074      O1084   1.272       .  A
C1074      C1663   1.490       .  S
O1075     Ni1091   1.919       .  S
O1075      C1081   1.278       .  A
O1076      C1081   1.278       .  A
C1077      C1973   1.471       .  S
O1078      C1080   1.269       .  A
O1079     Ni1090   1.908       .  S
C1080      O1086   1.279       .  A
C1080      C2063   1.489       .  S
C1081      C2123   1.484       .  S
H1082      O1083   0.966       .  S
O1083     Ni1091   1.913       .  S
O1083     Ni1085   1.916       .  S
O1083     Ni1090   1.907       .  S
O1084     Ni1085   1.934       .  S
Ni1085     O1089   1.919       .  S
Ni1085     O1087   1.938       .  S
O1086     Ni1091   1.945       .  S
C1088      O1089   1.273       .  A
C1088      C1773   1.471       .  S
O1093     Ni1099   1.920       .  S
O1093      C1114   1.268   1_455  A
O1094     Ni1117   1.933       .  S
O1094      C1103   1.275       .  A
O1095     Ni1099   1.920   1_655  S
O1095     Ni1117   1.913       .  S
O1095     Ni1111   1.913       .  S
O1095      H1118   0.966       .  S
C1096      O1113   1.277       .  A
C1096      O1105   1.279       .  A
C1096      C1453   1.471       .  S
O1097     Ni1116   1.921       .  S
O1097      C1103   1.269       .  A
O1098     Ni1116   1.917       .  S
O1098      C1100   1.270       .  A
Ni1099     O1102   1.913   1_455  S
Ni1099     O1104   1.930       .  S
C1100      O1110   1.269       .  A
C1100      C1603   1.494       .  S
O1101     Ni1117   1.936       .  S
O1101      C1107   1.286       .  A
O1102      C1107   1.272       .  A
C1103      C1853   1.484       .  S
O1104      C1106   1.274       .  A
O1105     Ni1116   1.933       .  S
C1106      O1112   1.272       .  A
C1106      C1903   1.502       .  S
C1107      C1813   1.477       .  S
H1108      O1109   0.966       .  S
O1109     Ni1117   1.917       .  S
O1109     Ni1111   1.896       .  S
O1109     Ni1116   1.915       .  S
O1110     Ni1111   1.923       .  S
Ni1111     O1115   1.905       .  S
Ni1111     O1113   1.909       .  S
O1112     Ni1117   1.931   1_455  S
C1114      O1115   1.265       .  A
C1114      C1493   1.485       .  S
O1119     Ni1125   1.910   1_556  S
O1119      C1140   1.266       .  A
O1120     Ni1143   1.907       .  S
O1120      C1129   1.271       .  A
O1121     Ni1125   1.908       .  S
O1121     Ni1143   1.888       .  S
O1121     Ni1137   1.925   1_554  S
O1121      H1144   0.966       .  S
C1122      O1139   1.287       .  A
C1122      O1131   1.280       .  A
C1122      C2443   1.495       .  S
O1123     Ni1142   1.947   1_554  S
O1123      C1129   1.272       .  A
O1124     Ni1142   1.905       .  S
O1124      C1126   1.267       .  A
Ni1125     O1128   1.919       .  S
Ni1125     O1130   1.916       .  S
C1126      O1136   1.274       .  A
C1126      C2503   1.472       .  S
O1127     Ni1143   1.906       .  S
O1127      C1133   1.275       .  A
O1128      C1133   1.275       .  A
C1129      C1673   1.478       .  S
O1130      C1132   1.269       .  A
O1131     Ni1142   1.926       .  S
C1132      O1138   1.276       .  A
C1132      C1723   1.481       .  S
C1133      C1783   1.471       .  S
H1134      O1135   0.966       .  S
O1135     Ni1143   1.900   1_556  S
O1135     Ni1137   1.905       .  S
O1135     Ni1142   1.907       .  S
O1136     Ni1137   1.930       .  S
Ni1137     O1141   1.930       .  S
Ni1137     O1139   1.944       .  S
O1138     Ni1143   1.933       .  S
C1140      O1141   1.279       .  A
C1140      C2353   1.489       .  S
O1145     Ni1151   1.923       .  S
O1145      C1166   1.266       .  A
O1146     Ni1169   1.936       .  S
O1146      C1155   1.277       .  A
O1147     Ni1151   1.913       .  S
O1147     Ni1169   1.919       .  S
O1147     Ni1163   1.917       .  S
O1147      H1170   0.966       .  S
C1148      O1165   1.280       .  A
C1148      O1157   1.280       .  A
C1148      C2323   1.502       .  S
O1149     Ni1168   1.922   1_565  S
O1149      C1155   1.273       .  A
O1150     Ni1168   1.933       .  S
O1150      C1152   1.273       .  A
Ni1151     O1154   1.911       .  S
Ni1151     O1156   1.903       .  S
C1152      O1162   1.274   1_545  A
C1152      C2210   1.514   1_545  S
O1153     Ni1169   1.967       .  S
O1153      C1159   1.291       .  A
O1154      C1159   1.274       .  A
C1155      C1993   1.491       .  S
O1156      C1158   1.268       .  A
O1157     Ni1168   1.933       .  S
C1158      O1164   1.276       .  A
C1158      C2033   1.498       .  S
C1159      C2083   1.504       .  S
H1160      O1161   0.966   1_545  S
O1161     Ni1169   1.929       .  S
O1161     Ni1163   1.900       .  S
O1161     Ni1168   1.909   1_565  S
O1162     Ni1163   1.943       .  S
Ni1163     O1167   1.903       .  S
Ni1163     O1165   1.934   1_565  S
O1164     Ni1169   1.948       .  S
C1166      O1167   1.266       .  A
C1166      C2170   1.471       .  S
O1171     Ni1177   1.921       .  S
O1171      C1192   1.268       .  A
O1172     Ni1195   1.930       .  S
O1172      C1181   1.280       .  A
O1173     Ni1177   1.907       .  S
O1173     Ni1195   1.903       .  S
O1173     Ni1189   1.916       .  S
O1173      H1196   0.966       .  S
C1174      O1191   1.277       .  A
C1174      O1183   1.275       .  A
C1174      C1523   1.487       .  S
O1175     Ni1194   1.929       .  S
O1175      C1181   1.272       .  A
O1176     Ni1194   1.926       .  S
O1176      C1178   1.275       .  A
Ni1177     O1180   1.903       .  S
Ni1177     O1182   1.918       .  S
C1178      O1188   1.277       .  A
C1178      C1473   1.510       .  S
O1179     Ni1195   1.975       .  S
O1179      C1185   1.293       .  A
O1180      C1185   1.275       .  A
C1181      C2200   1.500       .  S
O1182      C1184   1.269       .  A
O1183     Ni1194   1.931       .  S
C1184      O1190   1.281       .  A
C1184      C2303   1.503       .  S
C1185      C2253   1.504       .  S
H1186      O1187   0.966       .  S
O1187     Ni1195   1.938       .  S
O1187     Ni1189   1.916       .  S
O1187     Ni1194   1.920       .  S
O1188     Ni1189   1.951       .  S
Ni1189     O1193   1.910       .  S
Ni1189     O1191   1.938       .  S
O1190     Ni1195   1.957       .  S
C1192      O1193   1.269       .  A
C1192      C1583   1.470       .  S
O1197     Ni1203   1.926       .  S
O1197      C1218   1.270       .  A
O1198     Ni1221   1.944       .  S
O1198      C1207   1.276       .  A
O1199     Ni1203   1.902   1_565  S
O1199     Ni1221   1.916       .  S
O1199     Ni1215   1.926       .  S
O1199      H1222   0.966       .  S
C1200      O1217   1.284       .  A
C1200      O1209   1.275       .  A
C1200      C2153   1.477       .  S
O1201     Ni1220   1.913       .  S
O1201      C1207   1.268       .  A
O1202     Ni1220   1.908       .  S
O1202      C1204   1.268       .  A
Ni1203     O1206   1.920       .  S
Ni1203     O1208   1.910       .  S
C1204      O1214   1.283       .  A
C1204      C2190   1.495       .  S
O1205     Ni1221   1.966       .  S
O1205      C1211   1.291       .  A
O1206      C1211   1.278   1_545  A
C1207      C2660   1.492       .  S
O1208      C1210   1.270   1_545  A
O1209     Ni1220   1.917       .  S
C1210      O1216   1.277       .  A
C1210      C2603   1.504       .  S
C1211      C2553   1.507       .  S
H1212      O1213   0.966       .  S
O1213     Ni1221   1.931       .  S
O1213     Ni1215   1.908       .  S
O1213     Ni1220   1.913       .  S
O1214     Ni1215   1.964       .  S
Ni1215     O1219   1.948   1_565  S
Ni1215     O1217   1.935       .  S
O1216     Ni1221   1.949       .  S
C1218      O1219   1.281       .  A
C1218      C2243   1.498       .  S
O1223     Ni1229   1.909       .  S
O1223      C1244   1.266       .  A
O1224     Ni1247   1.922       .  S
O1224      C1233   1.273       .  A
O1225     Ni1229   1.897       .  S
O1225     Ni1247   1.891   1_455  S
O1225     Ni1241   1.918       .  S
O1225      H1248   0.966       .  S
C1226      O1243   1.284       .  A
C1226      O1235   1.276   1_455  A
C1226      C1830   1.511       .  S
O1227     Ni1246   1.923       .  S
O1227      C1233   1.269       .  A
O1228     Ni1246   1.912       .  S
O1228      C1230   1.270   1_655  A
Ni1229     O1232   1.909       .  S
Ni1229     O1234   1.916       .  S
C1230      O1240   1.278       .  A
C1230      C1793   1.510       .  S
O1231     Ni1247   1.933       .  S
O1231      C1237   1.283   1_655  A
O1232      C1237   1.276       .  A
C1233      C2670   1.473       .  S
O1234      C1236   1.268       .  A
O1235     Ni1246   1.922       .  S
C1236      O1242   1.281   1_455  A
C1236      C2563   1.499       .  S
C1237      C2510   1.486       .  S
H1238      O1239   0.966       .  S
O1239     Ni1247   1.920       .  S
O1239     Ni1241   1.920   1_655  S
O1239     Ni1246   1.907       .  S
O1240     Ni1241   1.960       .  S
Ni1241     O1245   1.922       .  S
Ni1241     O1243   1.956       .  S
O1242     Ni1247   1.958       .  S
C1244      O1245   1.274       .  A
C1244      C1943   1.468       .  S
C1249      C1250   1.409       .  A
C1249      C1254   1.395       .  A
C1249      H1256   1.083       .  S
C1250      C1251   1.406   1_554  A
C1251      C1252   1.395       .  A
C1251      F1258   1.357       .  S
C1252      C1253   1.408       .  A
C1252      H1257   1.083       .  S
C1253      C1254   1.407   1_556  A
C1254      F1255   1.357       .  S
C1259      C1260   1.410       .  A
C1259      C1264   1.407       .  A
C1259      H1266   1.082       .  S
C1260      C1261   1.408   1_545  A
C1261      C1262   1.396       .  A
C1261      F1268   1.358       .  S
C1262      C1263   1.403   1_565  A
C1262      H1267   1.084       .  S
C1263      C1264   1.404       .  A
C1264      F1265   1.357       .  S
C1269      C1270   1.407   1_546  A
C1269      C1274   1.398       .  A
C1269      H1276   1.083       .  S
C1270      C1271   1.411       .  A
C1271      C1272   1.395       .  A
C1271      F1278   1.357       .  S
C1272      C1273   1.403   1_554  A
C1272      H1277   1.084       .  S
C1273      C1274   1.409   1_565  A
C1274      F1275   1.358       .  S
C1279      C1280   1.405       .  A
C1279      C1284   1.396       .  A
C1279      H1286   1.083       .  S
C1280      C1281   1.413       .  A
C1281      C1282   1.406       .  A
C1281      F1288   1.357       .  S
C1282      C1283   1.407       .  A
C1282      H1287   1.083       .  S
C1283      C1284   1.413       .  A
C1284      F1285   1.358       .  S
C1289      C1290   1.407   1_556  A
C1289      C1294   1.397       .  A
C1289      H1296   1.083       .  S
C1290      C1291   1.412       .  A
C1291      C1292   1.405       .  A
C1291      F1298   1.354       .  S
C1292      C1293   1.406       .  A
C1292      H1297   1.083       .  S
C1293      C1294   1.411   1_554  A
C1294      F1295   1.358       .  S
C1299      C1300   1.408       .  A
C1299      C1304   1.401       .  A
C1299      H1306   1.083   1_455  S
C1300      C1301   1.410       .  A
C1301      C1302   1.400       .  A
C1301      F1308   1.357       .  S
C1302      C1303   1.403       .  A
C1302      H1307   1.084       .  S
C1303      C1304   1.405       .  A
C1304      F1305   1.357   1_456  S
C1309      C1310   1.414       .  A
C1309      C1314   1.394       .  A
C1309      H1316   1.083       .  S
C1310      C1311   1.414       .  A
C1311      C1312   1.419       .  A
C1311      F1318   1.356       .  S
C1312      C1313   1.411       .  A
C1312      H1317   1.083       .  S
C1313      C1314   1.398       .  A
C1314      F1315   1.358       .  S
C1319      C1320   1.404   1_655  A
C1319      C1324   1.391   1_655  A
C1319      H1326   1.084       .  S
C1320      C1321   1.406       .  A
C1321      C1322   1.394       .  A
C1321      F1328   1.358       .  S
C1322      C1323   1.403       .  A
C1322      H1327   1.084       .  S
C1323      C1324   1.402       .  A
C1324      F1325   1.358   1_455  S
C1329      C1330   1.403       .  A
C1329      C1334   1.384       .  A
C1329      H1336   1.084       .  S
C1330      C1331   1.406   1_565  A
C1331      C1332   1.396       .  A
C1331      F1338   1.357       .  S
C1332      C1333   1.406       .  A
C1332      H1337   1.083       .  S
C1333      C1334   1.406   1_545  A
C1334      F1335   1.358       .  S
C1339      C1340   1.410   1_565  A
C1339      C1344   1.401       .  A
C1339      H1346   1.083       .  S
C1340      C1341   1.406       .  A
C1341      C1342   1.401       .  A
C1341      F1348   1.357       .  S
C1342      C1343   1.409       .  A
C1342      H1347   1.083       .  S
C1343      C1344   1.405   1_545  A
C1344      F1345   1.357       .  S
C1349      C1350   1.415   1_545  A
C1349      C1354   1.408       .  A
C1349      H1356   1.082       .  S
C1350      C1351   1.409       .  A
C1351      C1352   1.403       .  A
C1351      F1358   1.357       .  S
C1352      C1353   1.411       .  A
C1352      H1357   1.083       .  S
C1353      C1354   1.407   1_565  A
C1354      F1355   1.357       .  S
C1359      C1360   1.407       .  A
C1359      C1364   1.403       .  A
C1359      H1366   1.083       .  S
C1360      C1361   1.412       .  A
C1361      C1362   1.396       .  A
C1361      F1368   1.358       .  S
C1362      C1363   1.399       .  A
C1362      H1367   1.084       .  S
C1363      C1364   1.407       .  A
C1364      F1365   1.357       .  S
C1369      C1370   1.403       .  A
C1369      C1374   1.395       .  A
C1369      H1376   1.084       .  S
C1370      C1371   1.408       .  A
C1371      C1372   1.405       .  A
C1371      F1378   1.358       .  S
C1372      C1373   1.409       .  A
C1372      H1377   1.083       .  S
C1373      C1374   1.411       .  A
C1374      F1375   1.358       .  S
C1379      C1380   1.400       .  A
C1379      C1384   1.392       .  A
C1379      H1386   1.083       .  S
C1380      C1381   1.413       .  A
C1381      C1382   1.389       .  A
C1381      F1388   1.357       .  S
C1382      C1383   1.395       .  A
C1382      H1387   1.083       .  S
C1383      C1384   1.410       .  A
C1384      F1385   1.358       .  S
C1389      C1390   1.410       .  A
C1389      C1394   1.406       .  A
C1389      H1396   1.083       .  S
C1390      C1391   1.406       .  A
C1391      C1392   1.379       .  A
C1391      F1398   1.359       .  S
C1392      C1393   1.403       .  A
C1392      H1397   1.080       .  S
C1393      C1394   1.409       .  A
C1394      F1395   1.357       .  S
C1399      C1400   1.408       .  A
C1399      C1404   1.403       .  A
C1399      H1406   1.083       .  S
C1400      C1401   1.406       .  A
C1401      C1402   1.400       .  A
C1401      F1408   1.358       .  S
C1402      C1403   1.405       .  A
C1402      H1407   1.084       .  S
C1403      C1404   1.403       .  A
C1404      F1405   1.357       .  S
C1409      C1410   1.409       .  A
C1409      C1414   1.394       .  A
C1409      H1416   1.083       .  S
C1410      C1411   1.406       .  A
C1411      C1412   1.396       .  A
C1411      F1418   1.357       .  S
C1412      C1413   1.408       .  A
C1412      H1417   1.083       .  S
C1413      C1414   1.407       .  A
C1414      F1415   1.358       .  S
C1419      C1420   1.404       .  A
C1419      C1424   1.394       .  A
C1419      H1426   1.083       .  S
C1420      C1421   1.413       .  A
C1421      C1422   1.399       .  A
C1421      F1428   1.357       .  S
C1422      C1423   1.402       .  A
C1422      H1427   1.083       .  S
C1423      C1424   1.410       .  A
C1424      F1425   1.358       .  S
C1429      C1430   1.402       .  A
C1429      C1434   1.397       .  A
C1429      H1436   1.084       .  S
C1430      C1431   1.412       .  A
C1431      C1432   1.403       .  A
C1431      F1438   1.358       .  S
C1432      C1433   1.401       .  A
C1432      H1437   1.083       .  S
C1433      C1434   1.408       .  A
C1434      F1435   1.357       .  S
C1439      C1440   1.403       .  A
C1439      C1444   1.400       .  A
C1439      H1446   1.083       .  S
C1440      C1441   1.410       .  A
C1441      C1442   1.399       .  A
C1441      F1448   1.358       .  S
C1442      C1443   1.405       .  A
C1442      H1447   1.083       .  S
C1443      C1444   1.412       .  A
C1444      F1445   1.355       .  S
C1449      C1450   1.412       .  A
C1449      C1454   1.400       .  A
C1449      H1456   1.083       .  S
C1450      C1451   1.409       .  A
C1451      C1452   1.395       .  A
C1451      F1458   1.357   1_655  S
C1452      C1453   1.402       .  A
C1452      H1457   1.084   1_655  S
C1453      C1454   1.402       .  A
C1454      F1455   1.358       .  S
C1459      C1460   1.409       .  A
C1459      C1464   1.408       .  A
C1459      H1466   1.083       .  S
C1460      C1461   1.412       .  A
C1461      C1462   1.397       .  A
C1461      F1468   1.358       .  S
C1462      C1463   1.405       .  A
C1462      H1467   1.083       .  S
C1463      C1464   1.411       .  A
C1464      F1465   1.356       .  S
C1469      C1470   1.409       .  A
C1469      C1474   1.413       .  A
C1469      H1476   1.083       .  S
C1470      C1471   1.412       .  A
C1471      C1472   1.405       .  A
C1471      F1478   1.358       .  S
C1472      C1473   1.409       .  A
C1472      H1477   1.083       .  S
C1473      C1474   1.416       .  A
C1474      F1475   1.357       .  S
C1479      C1480   1.406       .  A
C1479      C1484   1.397       .  A
C1479      H1486   1.083       .  S
C1480      C1481   1.408       .  A
C1481      C1482   1.403       .  A
C1481      F1488   1.357       .  S
C1482      C1483   1.406       .  A
C1482      H1487   1.083       .  S
C1483      C1484   1.405       .  A
C1484      F1485   1.355       .  S
C1489      C1490   1.406       .  A
C1489      C1494   1.395       .  A
C1489      H1496   1.081       .  S
C1490      C1491   1.410       .  A
C1491      C1492   1.401       .  A
C1491      F1498   1.357   1_655  S
C1492      C1493   1.406       .  A
C1492      H1497   1.083   1_655  S
C1493      C1494   1.408       .  A
C1494      F1495   1.357       .  S
C1499      C1500   1.398       .  A
C1499      C1504   1.393       .  A
C1499      H1506   1.084       .  S
C1500      C1501   1.402       .  A
C1501      C1502   1.390       .  A
C1501      F1508   1.358       .  S
C1502      C1503   1.403       .  A
C1502      H1507   1.084       .  S
C1503      C1504   1.410       .  A
C1504      F1505   1.356       .  S
C1509      C1510   1.405       .  A
C1509      C1514   1.387       .  A
C1509      H1516   1.084       .  S
C1510      C1511   1.406       .  A
C1511      C1512   1.391       .  A
C1511      F1518   1.357       .  S
C1512      C1513   1.402       .  A
C1512      H1517   1.084       .  S
C1513      C1514   1.404       .  A
C1514      F1515   1.358       .  S
C1519      C1520   1.415       .  A
C1519      C1524   1.389       .  A
C1519      H1526   1.083       .  S
C1520      C1521   1.410       .  A
C1521      C1522   1.423       .  A
C1521      F1528   1.356       .  S
C1522      C1523   1.415       .  A
C1522      H1527   1.083       .  S
C1523      C1524   1.395       .  A
C1524      F1525   1.359       .  S
C1529      C1530   1.414       .  A
C1529      C1534   1.405       .  A
C1529      H1536   1.083       .  S
C1530      C1531   1.409       .  A
C1531      C1532   1.396       .  A
C1531      F1538   1.358       .  S
C1532      C1533   1.404       .  A
C1532      H1537   1.084       .  S
C1533      C1534   1.401       .  A
C1534      F1535   1.357       .  S
C1539      C1540   1.410       .  A
C1539      C1544   1.406       .  A
C1539      H1546   1.083       .  S
C1540      C1541   1.414       .  A
C1541      C1542   1.410       .  A
C1541      F1548   1.357       .  S
C1542      C1543   1.409       .  A
C1542      H1547   1.083       .  S
C1543      C1544   1.414       .  A
C1544      F1545   1.357       .  S
C1549      C1550   1.407       .  A
C1549      C1554   1.396       .  A
C1549      H1556   1.083       .  S
C1550      C1551   1.406       .  A
C1551      C1552   1.395       .  A
C1551      F1558   1.358       .  S
C1552      C1553   1.408       .  A
C1552      H1557   1.083       .  S
C1553      C1554   1.408       .  A
C1554      F1555   1.358       .  S
C1559      C1560   1.396       .  A
C1559      C1564   1.390       .  A
C1559      H1566   1.084       .  S
C1560      C1561   1.411       .  A
C1561      C1562   1.392       .  A
C1561      F1568   1.358       .  S
C1562      C1563   1.399       .  A
C1562      H1567   1.083       .  S
C1563      C1564   1.411       .  A
C1564      F1565   1.357       .  S
C1569      C1570   1.408       .  A
C1569      C1574   1.404       .  A
C1569      H1576   1.083       .  S
C1570      C1571   1.415       .  A
C1571      C1572   1.400       .  A
C1571      F1578   1.358       .  S
C1572      C1573   1.401       .  A
C1572      H1577   1.084       .  S
C1573      C1574   1.409       .  A
C1574      F1575   1.358       .  S
C1579      C1580   1.409       .  A
C1579      C1584   1.398       .  A
C1579      H1586   1.084       .  S
C1580      C1581   1.409       .  A
C1581      C1582   1.397       .  A
C1581      F1588   1.358       .  S
C1582      C1583   1.402       .  A
C1582      H1587   1.084       .  S
C1583      C1584   1.403       .  A
C1584      F1585   1.358       .  S
C1589      C1590   1.407       .  A
C1589      C1594   1.394       .  A
C1589      H1596   1.083       .  S
C1590      C1591   1.405       .  A
C1591      C1592   1.391       .  A
C1591      F1598   1.358       .  S
C1592      C1593   1.406       .  A
C1592      H1597   1.083       .  S
C1593      C1594   1.406       .  A
C1594      F1595   1.357       .  S
C1599      C1600   1.406       .  A
C1599      C1604   1.402       .  A
C1599      H1606   1.083       .  S
C1600      C1601   1.414       .  A
C1601      C1602   1.400       .  A
C1601      F1608   1.358       .  S
C1602      C1603   1.405       .  A
C1602      H1607   1.083       .  S
C1603      C1604   1.413       .  A
C1604      F1605   1.356       .  S
C1609      C1610   1.409       .  A
C1609      C1614   1.406       .  A
C1609      H1616   1.083       .  S
C1610      C1611   1.413       .  A
C1611      C1612   1.400       .  A
C1611      F1618   1.357       .  S
C1612      C1613   1.405       .  A
C1612      H1617   1.084       .  S
C1613      C1614   1.410       .  A
C1614      F1615   1.357       .  S
C1619      C1620   1.406       .  A
C1619      C1624   1.407       .  A
C1619      H1626   1.083       .  S
C1620      C1621   1.409       .  A
C1621      C1622   1.397       .  A
C1621      F1628   1.358       .  S
C1622      C1623   1.406       .  A
C1622      H1627   1.083       .  S
C1623      C1624   1.413       .  A
C1624      F1625   1.356       .  S
C1629      C1630   1.413       .  A
C1629      C1634   1.402       .  A
C1629      H1636   1.082       .  S
C1630      C1631   1.405       .  A
C1631      C1632   1.397       .  A
C1631      F1638   1.358       .  S
C1632      C1633   1.411       .  A
C1632      H1637   1.083       .  S
C1633      C1634   1.405       .  A
C1634      F1635   1.357       .  S
C1639      C1640   1.402       .  A
C1639      C1644   1.394       .  A
C1639      H1646   1.083       .  S
C1640      C1641   1.414       .  A
C1641      C1642   1.404       .  A
C1641      F1648   1.357       .  S
C1642      C1643   1.405       .  A
C1642      H1647   1.083       .  S
C1643      C1644   1.413       .  A
C1644      F1645   1.358       .  S
C1649      C1650   1.409   1_556  A
C1649      C1654   1.400       .  A
C1649      H1656   1.083       .  S
C1650      C1651   1.412       .  A
C1651      C1652   1.397       .  A
C1651      F1658   1.358       .  S
C1652      C1653   1.399   1_554  A
C1652      H1657   1.084       .  S
C1653      C1654   1.402       .  A
C1654      F1655   1.357       .  S
C1659      C1660   1.410       .  A
C1659      C1664   1.401       .  A
C1659      H1666   1.083       .  S
C1660      C1661   1.408       .  A
C1661      C1662   1.398       .  A
C1661      F1668   1.358       .  S
C1662      C1663   1.408       .  A
C1662      H1667   1.083       .  S
C1663      C1664   1.409       .  A
C1664      F1665   1.358       .  S
C1669      C1670   1.410       .  A
C1669      C1674   1.419       .  A
C1669      H1676   1.083       .  S
C1670      C1671   1.424       .  A
C1671      C1672   1.383       .  A
C1671      F1678   1.357       .  S
C1672      C1673   1.388       .  A
C1672      H1677   1.085       .  S
C1673      C1674   1.413       .  A
C1674      F1675   1.356       .  S
C1679      C1680   1.406       .  A
C1679      C1684   1.394       .  A
C1679      H1686   1.083   1_556  S
C1680      C1681   1.401       .  A
C1681      C1682   1.394       .  A
C1681      F1688   1.358       .  S
C1682      C1683   1.406       .  A
C1682      H1687   1.084       .  S
C1683      C1684   1.400       .  A
C1684      F1685   1.358   1_556  S
C1689      C1690   1.402       .  A
C1689      C1694   1.387       .  A
C1689      H1696   1.083       .  S
C1690      C1691   1.410       .  A
C1691      C1692   1.388       .  A
C1691      F1698   1.358       .  S
C1692      C1693   1.400       .  A
C1692      H1697   1.084       .  S
C1693      C1694   1.404       .  A
C1694      F1695   1.358       .  S
C1699      C1700   1.412       .  A
C1699      C1704   1.408       .  A
C1699      H1706   1.083       .  S
C1700      C1701   1.410   1_556  A
C1701      C1702   1.400       .  A
C1701      F1708   1.358       .  S
C1702      C1703   1.412   1_554  A
C1702      H1707   1.083       .  S
C1703      C1704   1.409       .  A
C1704      F1705   1.356       .  S
C1709      C1710   1.411       .  A
C1709      C1714   1.405       .  A
C1709      H1716   1.083       .  S
C1710      C1711   1.413       .  A
C1711      C1712   1.403       .  A
C1711      F1718   1.358       .  S
C1712      C1713   1.410       .  A
C1712      H1717   1.083       .  S
C1713      C1714   1.409       .  A
C1714      F1715   1.357       .  S
C1719      C1720   1.409       .  A
C1719      C1724   1.396       .  A
C1719      H1726   1.084   1_554  S
C1720      C1721   1.409       .  A
C1721      C1722   1.406       .  A
C1721      F1728   1.357       .  S
C1722      C1723   1.407       .  A
C1722      H1727   1.083       .  S
C1723      C1724   1.402       .  A
C1724      F1725   1.358   1_554  S
C1729      C1730   1.401       .  A
C1729      C1734   1.387       .  A
C1729      H1736   1.083       .  S
C1730      C1731   1.411       .  A
C1731      C1732   1.394       .  A
C1731      F1738   1.354       .  S
C1732      C1733   1.397       .  A
C1732      H1737   1.084       .  S
C1733      C1734   1.408       .  A
C1734      F1735   1.358       .  S
C1739      C1740   1.405       .  A
C1739      C1744   1.399       .  A
C1739      H1746   1.083       .  S
C1740      C1741   1.413       .  A
C1741      C1742   1.404       .  A
C1741      F1748   1.357       .  S
C1742      C1743   1.406       .  A
C1742      H1747   1.083       .  S
C1743      C1744   1.411       .  A
C1744      F1745   1.357       .  S
C1749      C1750   1.404       .  A
C1749      C1754   1.388       .  A
C1749      H1756   1.083       .  S
C1750      C1751   1.409       .  A
C1751      C1752   1.407       .  A
C1751      F1758   1.357       .  S
C1752      C1753   1.410       .  A
C1752      H1757   1.083       .  S
C1753      C1754   1.410       .  A
C1754      F1755   1.357       .  S
C1759      C1760   1.406       .  A
C1759      C1764   1.392       .  A
C1759      H1766   1.084       .  S
C1760      C1761   1.403       .  A
C1761      C1762   1.389       .  A
C1761      F1768   1.358       .  S
C1762      C1763   1.402       .  A
C1762      H1767   1.084       .  S
C1763      C1764   1.400       .  A
C1764      F1765   1.358       .  S
C1769      C1770   1.405       .  A
C1769      C1774   1.399       .  A
C1769      H1776   1.083       .  S
C1770      C1771   1.410       .  A
C1771      C1772   1.400       .  A
C1771      F1778   1.358       .  S
C1772      C1773   1.401       .  A
C1772      H1777   1.083       .  S
C1773      C1774   1.404       .  A
C1774      F1775   1.358       .  S
C1779      C1780   1.405       .  A
C1779      C1784   1.404       .  A
C1779      H1786   1.083       .  S
C1780      C1781   1.404       .  A
C1781      C1782   1.381       .  A
C1781      F1788   1.353       .  S
C1782      C1783   1.398       .  A
C1782      H1787   1.084       .  S
C1783      C1784   1.410       .  A
C1784      F1785   1.357       .  S
C1789      C1790   1.411       .  A
C1789      C1794   1.417       .  A
C1789      H1796   1.082       .  S
C1790      C1791   1.411   1_455  A
C1791      C1792   1.400       .  A
C1791      F1798   1.358       .  S
C1792      C1793   1.409   1_655  A
C1792      H1797   1.083       .  S
C1793      C1794   1.415       .  A
C1794      F1795   1.357       .  S
C1799      C1800   1.410       .  A
C1799      C1804   1.409       .  A
C1799      H1806   1.083       .  S
C1800      C1801   1.413       .  A
C1801      C1802   1.410       .  A
C1801      F1808   1.357       .  S
C1802      C1803   1.412       .  A
C1802      H1807   1.083       .  S
C1803      C1804   1.414       .  A
C1804      F1805   1.357       .  S
C1809      C1810   1.408   1_655  A
C1809      C1814   1.418       .  A
C1809      H1816   1.083       .  S
C1810      C1811   1.419       .  A
C1811      C1812   1.381       .  A
C1811      F1818   1.334       .  S
C1812      C1813   1.380   1_455  A
C1812      H1817   1.085       .  S
C1813      C1814   1.415       .  A
C1814      F1815   1.357       .  S
C1819      C1820   1.398       .  A
C1819      C1824   1.391       .  A
C1819      H1826   1.084   1_655  S
C1820      C1821   1.403       .  A
C1821      C1822   1.393       .  A
C1821      F1828   1.357       .  S
C1822      C1823   1.404       .  A
C1822      H1827   1.083       .  S
C1823      C1824   1.411       .  A
C1824      F1825   1.351   1_655  S
C1829      C1830   1.411       .  A
C1829      C1834   1.418       .  A
C1829      H1836   1.083       .  S
C1830      C1831   1.417   1_455  A
C1831      C1832   1.398   1_655  A
C1831      F1838   1.358       .  S
C1832      C1833   1.403       .  A
C1832      H1837   1.084   1_455  S
C1833      C1834   1.410       .  A
C1834      F1835   1.354       .  S
C1839      C1840   1.410       .  A
C1839      C1844   1.401       .  A
C1839      H1846   1.083       .  S
C1840      C1841   1.412       .  A
C1841      C1842   1.403       .  A
C1841      F1848   1.357       .  S
C1842      C1843   1.408       .  A
C1842      H1847   1.083       .  S
C1843      C1844   1.411       .  A
C1844      F1845   1.358       .  S
C1849      C1850   1.410       .  A
C1849      C1854   1.406       .  A
C1849      H1856   1.083       .  S
C1850      C1851   1.413   1_655  A
C1851      C1852   1.403       .  A
C1851      F1858   1.357       .  S
C1852      C1853   1.403   1_455  A
C1852      H1857   1.084       .  S
C1853      C1854   1.405       .  A
C1854      F1855   1.357       .  S
C1859      C1860   1.395       .  A
C1859      C1864   1.387       .  A
C1859      H1866   1.082       .  S
C1860      C1861   1.403       .  A
C1861      C1862   1.396       .  A
C1861      F1868   1.358       .  S
C1862      C1863   1.403       .  A
C1862      H1867   1.083       .  S
C1863      C1864   1.404       .  A
C1864      F1865   1.351       .  S
C1869      C1870   1.399       .  A
C1869      C1874   1.386       .  A
C1869      H1876   1.084       .  S
C1870      C1871   1.399       .  A
C1871      C1872   1.388       .  A
C1871      F1878   1.358       .  S
C1872      C1873   1.402       .  A
C1872      H1877   1.084       .  S
C1873      C1874   1.403       .  A
C1874      F1875   1.358       .  S
C1879      C1880   1.407       .  A
C1879      C1884   1.398       .  A
C1879      H1886   1.083       .  S
C1880      C1881   1.413       .  A
C1881      C1882   1.411       .  A
C1881      F1888   1.357       .  S
C1882      C1883   1.407       .  A
C1882      H1887   1.083       .  S
C1883      C1884   1.410       .  A
C1884      F1885   1.359       .  S
C1889      C1890   1.409       .  A
C1889      C1894   1.401       .  A
C1889      H1896   1.083       .  S
C1890      C1891   1.412       .  A
C1891      C1892   1.404       .  A
C1891      F1898   1.357       .  S
C1892      C1893   1.408       .  A
C1892      H1897   1.083       .  S
C1893      C1894   1.411       .  A
C1894      F1895   1.357       .  S
C1899      C1900   1.407       .  A
C1899      C1904   1.406       .  A
C1899      H1906   1.083       .  S
C1900      C1901   1.410       .  A
C1901      C1902   1.405       .  A
C1901      F1908   1.357       .  S
C1902      C1903   1.408       .  A
C1902      H1907   1.083       .  S
C1903      C1904   1.415       .  A
C1904      F1905   1.358       .  S
C1909      C1910   1.410       .  A
C1909      C1914   1.394       .  A
C1909      H1916   1.080       .  S
C1910      C1911   1.403       .  A
C1911      C1912   1.398       .  A
C1911      F1918   1.358       .  S
C1912      C1913   1.412       .  A
C1912      H1917   1.083       .  S
C1913      C1914   1.404       .  A
C1914      F1915   1.358       .  S
C1919      C1920   1.406       .  A
C1919      C1924   1.400       .  A
C1919      H1926   1.084       .  S
C1920      C1921   1.408       .  A
C1921      C1922   1.401       .  A
C1921      F1928   1.358       .  S
C1922      C1923   1.409       .  A
C1922      H1927   1.083       .  S
C1923      C1924   1.410       .  A
C1924      F1925   1.356       .  S
C1929      C1930   1.403       .  A
C1929      C1934   1.387       .  A
C1929      H1936   1.083       .  S
C1930      C1931   1.405       .  A
C1931      C1932   1.391       .  A
C1931      F1938   1.358       .  S
C1932      C1933   1.406       .  A
C1932      H1937   1.083       .  S
C1933      C1934   1.407       .  A
C1934      F1935   1.358       .  S
C1939      C1940   1.409       .  A
C1939      C1944   1.397       .  A
C1939      H1946   1.084       .  S
C1940      C1941   1.409       .  A
C1941      C1942   1.400       .  A
C1941      F1948   1.357       .  S
C1942      C1943   1.402       .  A
C1942      H1947   1.084       .  S
C1943      C1944   1.402       .  A
C1944      F1945   1.358       .  S
C1949      C1950   1.406       .  A
C1949      C1954   1.389       .  A
C1949      H1956   1.084       .  S
C1950      C1951   1.404       .  A
C1951      C1952   1.400       .  A
C1951      F1958   1.357       .  S
C1952      C1953   1.404       .  A
C1952      H1957   1.083       .  S
C1953      C1954   1.397       .  A
C1954      F1955   1.358       .  S
C1959      C1960   1.404       .  A
C1959      C1964   1.388       .  A
C1959      H1966   1.084       .  S
C1960      C1961   1.406       .  A
C1961      C1962   1.393       .  A
C1961      F1968   1.358       .  S
C1962      C1963   1.400       .  A
C1962      H1967   1.084       .  S
C1963      C1964   1.400       .  A
C1964      F1965   1.358       .  S
C1969      C1970   1.411       .  A
C1969      C1974   1.402       .  A
C1969      H1976   1.083       .  S
C1970      C1971   1.410       .  A
C1971      C1972   1.399       .  A
C1971      F1978   1.357       .  S
C1972      C1973   1.403       .  A
C1972      H1977   1.084       .  S
C1973      C1974   1.402       .  A
C1974      F1975   1.356       .  S
C1979      C1980   1.407       .  A
C1979      C1984   1.396       .  A
C1979      H1986   1.083       .  S
C1980      C1981   1.407       .  A
C1981      C1982   1.396       .  A
C1981      F1988   1.357       .  S
C1982      C1983   1.408       .  A
C1982      H1987   1.083       .  S
C1983      C1984   1.409       .  A
C1984      F1985   1.358       .  S
C1989      C1990   1.409       .  A
C1989      C1994   1.409       .  A
C1989      H1996   1.083       .  S
C1990      C1991   1.412       .  A
C1991      C1992   1.401       .  A
C1991      F1998   1.358       .  S
C1992      C1993   1.403       .  A
C1992      H1997   1.083       .  S
C1993      C1994   1.410       .  A
C1994      F1995   1.357       .  S
C1999      C2000   1.406       .  A
C1999      C2004   1.391       .  A
C1999      H2006   1.083       .  S
C2000      C2001   1.406       .  A
C2001      C2002   1.389       .  A
C2001      F2008   1.357       .  S
C2002      C2003   1.405       .  A
C2002      H2007   1.083       .  S
C2003      C2004   1.407       .  A
C2004      F2005   1.358       .  S
C2009      C2010   1.412       .  A
C2009      C2014   1.397       .  A
C2009      H2016   1.083       .  S
C2010      C2011   1.409       .  A
C2011      C2012   1.408       .  A
C2011      F2018   1.357       .  S
C2012      C2013   1.413       .  A
C2012      H2017   1.083       .  S
C2013      C2014   1.404       .  A
C2014      F2015   1.358       .  S
C2019      C2020   1.406       .  A
C2019      C2024   1.407       .  A
C2019      H2026   1.083       .  S
C2020      C2021   1.402       .  A
C2021      C2022   1.397       .  A
C2021      F2028   1.357       .  S
C2022      C2023   1.411       .  A
C2022      H2027   1.082       .  S
C2023      C2024   1.413       .  A
C2024      F2025   1.357       .  S
C2029      C2030   1.404       .  A
C2029      C2034   1.398       .  A
C2029      H2036   1.084       .  S
C2030      C2031   1.410       .  A
C2031      C2032   1.408       .  A
C2031      F2038   1.356       .  S
C2032      C2033   1.409       .  A
C2032      H2037   1.083       .  S
C2033      C2034   1.414       .  A
C2034      F2035   1.358       .  S
C2039      C2040   1.411       .  A
C2039      C2044   1.390       .  A
C2039      H2046   1.083       .  S
C2040      C2041   1.397       .  A
C2041      C2042   1.387       .  A
C2041      F2048   1.359       .  S
C2042      C2043   1.408       .  A
C2042      H2047   1.076       .  S
C2043      C2044   1.393       .  A
C2044      F2045   1.357       .  S
C2049      C2050   1.410       .  A
C2049      C2054   1.399       .  A
C2049      H2056   1.084       .  S
C2050      C2051   1.400       .  A
C2051      C2052   1.395       .  A
C2051      F2058   1.357       .  S
C2052      C2053   1.411       .  A
C2052      H2057   1.082       .  S
C2053      C2054   1.404       .  A
C2054      F2055   1.358       .  S
C2059      C2060   1.406       .  A
C2059      C2064   1.407       .  A
C2059      H2066   1.083       .  S
C2060      C2061   1.414       .  A
C2061      C2062   1.399       .  A
C2061      F2068   1.358       .  S
C2062      C2063   1.401       .  A
C2062      H2067   1.083       .  S
C2063      C2064   1.412       .  A
C2064      F2065   1.357       .  S
C2069      C2070   1.414       .  A
C2069      C2074   1.400       .  A
C2069      H2076   1.083       .  S
C2070      C2071   1.405       .  A
C2071      C2072   1.402       .  A
C2071      F2078   1.357       .  S
C2072      C2073   1.415       .  A
C2072      H2077   1.083       .  S
C2073      C2074   1.405       .  A
C2074      F2075   1.357       .  S
C2079      C2080   1.404       .  A
C2079      C2084   1.402       .  A
C2079      H2086   1.083       .  S
C2080      C2081   1.419       .  A
C2081      C2082   1.413       .  A
C2081      F2088   1.357       .  S
C2082      C2083   1.405       .  A
C2082      H2087   1.083       .  S
C2083      C2084   1.416       .  A
C2084      F2085   1.358       .  S
C2089      C2090   1.404       .  A
C2089      C2094   1.395       .  A
C2089      H2096   1.084       .  S
C2090      C2091   1.400       .  A
C2091      C2092   1.387       .  A
C2091      F2098   1.358       .  S
C2092      C2093   1.408       .  A
C2092      H2097   1.083       .  S
C2093      C2094   1.407       .  A
C2094      F2095   1.358       .  S
C2099      C2100   1.397       .  A
C2099      C2104   1.386       .  A
C2099      H2106   1.084       .  S
C2100      C2101   1.404       .  A
C2101      C2102   1.397       .  A
C2101      F2108   1.358       .  S
C2102      C2103   1.404       .  A
C2102      H2107   1.083       .  S
C2103      C2104   1.407       .  A
C2104      F2105   1.358       .  S
C2109      C2110   1.408       .  A
C2109      C2114   1.406       .  A
C2109      H2116   1.083       .  S
C2110      C2111   1.407       .  A
C2111      C2112   1.394       .  A
C2111      F2118   1.358       .  S
C2112      C2113   1.406       .  A
C2112      H2117   1.084       .  S
C2113      C2114   1.409       .  A
C2114      F2115   1.357       .  S
C2119      C2120   1.408       .  A
C2119      C2124   1.395       .  A
C2119      H2126   1.083       .  S
C2120      C2121   1.409       .  A
C2121      C2122   1.397       .  A
C2121      F2128   1.358       .  S
C2122      C2123   1.407       .  A
C2122      H2127   1.083       .  S
C2123      C2124   1.408       .  A
C2124      F2125   1.356       .  S
C2129      C2130   1.409       .  A
C2129      C2134   1.402       .  A
C2129      H2136   1.083       .  S
C2130      C2131   1.408       .  A
C2131      C2132   1.397       .  A
C2131      F2138   1.358       .  S
C2132      C2133   1.400       .  A
C2132      H2137   1.084       .  S
C2133      C2134   1.402       .  A
C2134      F2135   1.357       .  S
C2139      C2140   1.402       .  A
C2139      C2144   1.398       .  A
C2139      H2146   1.084       .  S
C2140      C2141   1.410       .  A
C2141      C2142   1.395       .  A
C2141      F2148   1.358       .  S
C2142      C2143   1.399       .  A
C2142      H2147   1.083       .  S
C2143      C2144   1.409       .  A
C2144      F2145   1.358       .  S
C2149      C2150   1.407       .  A
C2149      C2154   1.403       .  A
C2149      H2156   1.083       .  S
C2150      C2151   1.415   1_565  A
C2151      C2152   1.397   1_545  A
C2151      F2158   1.358       .  S
C2152      C2153   1.398       .  A
C2152      H2157   1.083   1_565  S
C2153      C2154   1.409       .  A
C2154      F2155   1.358       .  S
C2159      C2160   1.406       .  A
C2159      C2164   1.397       .  A
C2159      H2166   1.084       .  S
C2160      C2161   1.405       .  A
C2161      C2162   1.395       .  A
C2161      F2168   1.358       .  S
C2162      C2163   1.404       .  A
C2162      H2167   1.083       .  S
C2163      C2164   1.405       .  A
C2164      F2165   1.358       .  S
C2169      C2170   1.404       .  A
C2169      C2174   1.400       .  A
C2169      H2176   1.083       .  S
C2170      C2171   1.402       .  A
C2171      C2172   1.392       .  A
C2171      F2178   1.358       .  S
C2172      C2173   1.408   1_565  A
C2172      H2177   1.082       .  S
C2173      C2174   1.410   1_545  A
C2174      F2175   1.357   1_565  S
C2179      C2180   1.403       .  A
C2179      C2184   1.390       .  A
C2179      H2186   1.083       .  S
C2180      C2181   1.410       .  A
C2181      C2182   1.391       .  A
C2181      F2188   1.358       .  S
C2182      C2183   1.403       .  A
C2182      H2187   1.083       .  S
C2183      C2184   1.408       .  A
C2184      F2185   1.357       .  S
C2189      C2190   1.412       .  A
C2189      C2194   1.412       .  A
C2189      H2196   1.083       .  S
C2190      C2191   1.401       .  A
C2191      C2192   1.403       .  A
C2191      F2198   1.357   1_565  S
C2192      C2193   1.416       .  A
C2192      H2197   1.083   1_565  S
C2193      C2194   1.411       .  A
C2194      F2195   1.357       .  S
C2199      C2200   1.393       .  A
C2199      C2204   1.393       .  A
C2199      H2206   1.084       .  S
C2200      C2201   1.420       .  A
C2201      C2202   1.417       .  A
C2201      F2208   1.357       .  S
C2202      C2203   1.406       .  A
C2202      H2207   1.083       .  S
C2203      C2204   1.419       .  A
C2204      F2205   1.345       .  S
C2209      C2210   1.410   1_545  A
C2209      C2214   1.410       .  A
C2209      H2216   1.083       .  S
C2210      C2211   1.415       .  A
C2211      C2212   1.410       .  A
C2211      F2218   1.357       .  S
C2212      C2213   1.411       .  A
C2212      H2217   1.083       .  S
C2213      C2214   1.415   1_565  A
C2214      F2215   1.357       .  S
C2219      C2220   1.410       .  A
C2219      C2224   1.397       .  A
C2219      H2226   1.083       .  S
C2220      C2221   1.402       .  A
C2221      C2222   1.385       .  A
C2221      F2228   1.357       .  S
C2222      C2223   1.406       .  A
C2222      H2227   1.080       .  S
C2223      C2224   1.404       .  A
C2224      F2225   1.358       .  S
C2229      C2230   1.400       .  A
C2229      C2234   1.395       .  A
C2229      H2236   1.084       .  S
C2230      C2231   1.405       .  A
C2231      C2232   1.391       .  A
C2231      F2238   1.358       .  S
C2232      C2233   1.404       .  A
C2232      H2237   1.083       .  S
C2233      C2234   1.409       .  A
C2234      F2235   1.354       .  S
C2239      C2240   1.409       .  A
C2239      C2244   1.414       .  A
C2239      H2246   1.079       .  S
C2240      C2241   1.409       .  A
C2241      C2242   1.404       .  A
C2241      F2248   1.358       .  S
C2242      C2243   1.407       .  A
C2242      H2247   1.083       .  S
C2243      C2244   1.407       .  A
C2244      F2245   1.357       .  S
C2249      C2250   1.405       .  A
C2249      C2254   1.395       .  A
C2249      H2256   1.083       .  S
C2250      C2251   1.418       .  A
C2251      C2252   1.417       .  A
C2251      F2258   1.356       .  S
C2252      C2253   1.409       .  A
C2252      H2257   1.083       .  S
C2253      C2254   1.415       .  A
C2254      F2255   1.358       .  S
C2259      C2260   1.410       .  A
C2259      C2264   1.409       .  A
C2259      H2266   1.083       .  S
C2260      C2261   1.415       .  A
C2261      C2262   1.408       .  A
C2261      F2268   1.357       .  S
C2262      C2263   1.409       .  A
C2262      H2267   1.083       .  S
C2263      C2264   1.415       .  A
C2264      F2265   1.357       .  S
C2269      C2270   1.396       .  A
C2269      C2274   1.392       .  A
C2269      H2276   1.076       .  S
C2270      C2271   1.407       .  A
C2271      C2272   1.411       .  A
C2271      F2278   1.357       .  S
C2272      C2273   1.410       .  A
C2272      H2277   1.083       .  S
C2273      C2274   1.411       .  A
C2274      F2275   1.358       .  S
C2279      C2280   1.400       .  A
C2279      C2284   1.386       .  A
C2279      H2286   1.083       .  S
C2280      C2281   1.404       .  A
C2281      C2282   1.389       .  A
C2281      F2288   1.353       .  S
C2282      C2283   1.401       .  A
C2282      H2287   1.083       .  S
C2283      C2284   1.410       .  A
C2284      F2285   1.358       .  S
C2289      C2290   1.400       .  A
C2289      C2294   1.394       .  A
C2289      H2296   1.084       .  S
C2290      C2291   1.399       .  A
C2291      C2292   1.384       .  A
C2291      F2298   1.356       .  S
C2292      C2293   1.402       .  A
C2292      H2297   1.084       .  S
C2293      C2294   1.409       .  A
C2294      F2295   1.358       .  S
C2299      C2300   1.416       .  A
C2299      C2304   1.404       .  A
C2299      H2306   1.083       .  S
C2300      C2301   1.410       .  A
C2301      C2302   1.413       .  A
C2301      F2308   1.357       .  S
C2302      C2303   1.414       .  A
C2302      H2307   1.083       .  S
C2303      C2304   1.404       .  A
C2304      F2305   1.357       .  S
C2309      C2310   1.412       .  A
C2309      C2314   1.411       .  A
C2309      H2316   1.083       .  S
C2310      C2311   1.411       .  A
C2311      C2312   1.394       .  A
C2311      F2318   1.353       .  S
C2312      C2313   1.397       .  A
C2312      H2317   1.084       .  S
C2313      C2314   1.406       .  A
C2314      F2315   1.357       .  S
C2319      C2320   1.405       .  A
C2319      C2324   1.410       .  A
C2319      H2326   1.077       .  S
C2320      C2321   1.411       .  A
C2321      C2322   1.399       .  A
C2321      F2328   1.358       .  S
C2322      C2323   1.408       .  A
C2322      H2327   1.083       .  S
C2323      C2324   1.414       .  A
C2324      F2325   1.357       .  S
C2329      C2330   1.411       .  A
C2329      C2334   1.396       .  A
C2329      H2336   1.084       .  S
C2330      C2331   1.408       .  A
C2331      C2332   1.407       .  A
C2331      F2338   1.357       .  S
C2332      C2333   1.410       .  A
C2332      H2337   1.083       .  S
C2333      C2334   1.403       .  A
C2334      F2335   1.358       .  S
C2339      C2340   1.406       .  A
C2339      C2344   1.398   1_556  A
C2339      H2346   1.083   1_556  S
C2340      C2341   1.413       .  A
C2341      C2342   1.399       .  A
C2341      F2348   1.358       .  S
C2342      C2343   1.405       .  A
C2342      H2347   1.083       .  S
C2343      C2344   1.412   1_556  A
C2344      F2345   1.357       .  S
C2349      C2350   1.405       .  A
C2349      C2354   1.389       .  A
C2349      H2356   1.070       .  S
C2350      C2351   1.402       .  A
C2351      C2352   1.411       .  A
C2351      F2358   1.357   1_556  S
C2352      C2353   1.418       .  A
C2352      H2357   1.083   1_556  S
C2353      C2354   1.398       .  A
C2354      F2355   1.358       .  S
C2359      C2360   1.406       .  A
C2359      C2364   1.393       .  A
C2359      H2366   1.084       .  S
C2360      C2361   1.404       .  A
C2361      C2362   1.393       .  A
C2361      F2368   1.357       .  S
C2362      C2363   1.407       .  A
C2362      H2367   1.083       .  S
C2363      C2364   1.406       .  A
C2364      F2365   1.357       .  S
C2369      C2370   1.415       .  A
C2369      C2374   1.402       .  A
C2369      H2376   1.083       .  S
C2370      C2371   1.405       .  A
C2371      C2372   1.400       .  A
C2371      F2378   1.357       .  S
C2372      C2373   1.413       .  A
C2372      H2377   1.083       .  S
C2373      C2374   1.405       .  A
C2374      F2375   1.357       .  S
C2379      C2380   1.405       .  A
C2379      C2384   1.404       .  A
C2379      H2386   1.083       .  S
C2380      C2381   1.409       .  A
C2381      C2382   1.403       .  A
C2381      F2388   1.358       .  S
C2382      C2383   1.405       .  A
C2382      H2387   1.084       .  S
C2383      C2384   1.410       .  A
C2384      F2385   1.357       .  S
C2389      C2390   1.409       .  A
C2389      C2394   1.403       .  A
C2389      H2396   1.083       .  S
C2390      C2391   1.415       .  A
C2391      C2392   1.408       .  A
C2391      F2398   1.357       .  S
C2392      C2393   1.404       .  A
C2392      H2397   1.083       .  S
C2393      C2394   1.407       .  A
C2394      F2395   1.357       .  S
C2399      C2400   1.404       .  A
C2399      C2404   1.389       .  A
C2399      H2406   1.084       .  S
C2400      C2401   1.406       .  A
C2401      C2402   1.392       .  A
C2401      F2408   1.358       .  S
C2402      C2403   1.401       .  A
C2402      H2407   1.081       .  S
C2403      C2404   1.402       .  A
C2404      F2405   1.358       .  S
C2409      C2410   1.413       .  A
C2409      C2414   1.393       .  A
C2409      H2416   1.083       .  S
C2410      C2411   1.401       .  A
C2411      C2412   1.393       .  A
C2411      F2418   1.358       .  S
C2412      C2413   1.412       .  A
C2412      H2417   1.084       .  S
C2413      C2414   1.400       .  A
C2414      F2415   1.358       .  S
C2419      C2420   1.409       .  A
C2419      C2424   1.406       .  A
C2419      H2426   1.084       .  S
C2420      C2421   1.410       .  A
C2421      C2422   1.410       .  A
C2421      F2428   1.356       .  S
C2422      C2423   1.409       .  A
C2422      H2427   1.083       .  S
C2423      C2424   1.410       .  A
C2424      F2425   1.357       .  S
C2429      C2430   1.408       .  A
C2429      C2434   1.402       .  A
C2429      H2436   1.083       .  S
C2430      C2431   1.412       .  A
C2431      C2432   1.402       .  A
C2431      F2438   1.358       .  S
C2432      C2433   1.407       .  A
C2432      H2437   1.083       .  S
C2433      C2434   1.411       .  A
C2434      F2435   1.357       .  S
C2439      C2440   1.405       .  A
C2439      C2444   1.398       .  A
C2439      H2446   1.083       .  S
C2440      C2441   1.416       .  A
C2441      C2442   1.409       .  A
C2441      F2448   1.357       .  S
C2442      C2443   1.405       .  A
C2442      H2447   1.083       .  S
C2443      C2444   1.412       .  A
C2444      F2445   1.358       .  S
C2449      C2450   1.405       .  A
C2449      C2454   1.397       .  A
C2449      H2456   1.083       .  S
C2450      C2451   1.410       .  A
C2451      C2452   1.396       .  A
C2451      F2458   1.358       .  S
C2452      C2453   1.403       .  A
C2452      H2457   1.084       .  S
C2453      C2454   1.409       .  A
C2454      F2455   1.358       .  S
C2459      C2460   1.398       .  A
C2459      C2464   1.394       .  A
C2459      H2466   1.084       .  S
C2460      C2461   1.401       .  A
C2461      C2462   1.389       .  A
C2461      F2468   1.358       .  S
C2462      C2463   1.402       .  A
C2462      H2467   1.084       .  S
C2463      C2464   1.409       .  A
C2464      F2465   1.357       .  S
C2469      C2470   1.404       .  A
C2469      C2474   1.393       .  A
C2469      H2476   1.084       .  S
C2470      C2471   1.409       .  A
C2471      C2472   1.397       .  A
C2471      F2478   1.358       .  S
C2472      C2473   1.403       .  A
C2472      H2477   1.084       .  S
C2473      C2474   1.403       .  A
C2474      F2475   1.353       .  S
C2479      C2480   1.402       .  A
C2479      C2484   1.400       .  A
C2479      H2486   1.083       .  S
C2480      C2481   1.413       .  A
C2481      C2482   1.397       .  A
C2481      F2488   1.358       .  S
C2482      C2483   1.401       .  A
C2482      H2487   1.083       .  S
C2483      C2484   1.414       .  A
C2484      F2485   1.357       .  S
C2489      C2490   1.413   1_556  A
C2489      C2494   1.403       .  A
C2489      H2496   1.083       .  S
C2490      C2491   1.406       .  A
C2491      C2492   1.395       .  A
C2491      F2498   1.358       .  S
C2492      C2493   1.410       .  A
C2492      H2497   1.083       .  S
C2493      C2494   1.405   1_554  A
C2494      F2495   1.357       .  S
C2499      C2500   1.406       .  A
C2499      C2504   1.394       .  A
C2499      H2506   1.084   1_556  S
C2500      C2501   1.406       .  A
C2501      C2502   1.402       .  A
C2501      F2508   1.357       .  S
C2502      C2503   1.405       .  A
C2502      H2507   1.083       .  S
C2503      C2504   1.402       .  A
C2504      F2505   1.358   1_556  S
C2509      C2510   1.404   1_655  A
C2509      C2514   1.398       .  A
C2509      H2516   1.083       .  S
C2510      C2511   1.413       .  A
C2511      C2512   1.395       .  A
C2511      F2518   1.358       .  S
C2512      C2513   1.404   1_455  A
C2512      H2517   1.083       .  S
C2513      C2514   1.413       .  A
C2514      F2515   1.358       .  S
C2519      C2520   1.400       .  A
C2519      C2524   1.395       .  A
C2519      H2526   1.084       .  S
C2520      C2521   1.407       .  A
C2521      C2522   1.399       .  A
C2521      F2528   1.357   1_556  S
C2522      C2523   1.402       .  A
C2522      H2527   1.083   1_556  S
C2523      C2524   1.404       .  A
C2524      F2525   1.355       .  S
C2529      C2530   1.411   1_655  A
C2529      C2534   1.395       .  A
C2529      H2536   1.083   1_556  S
C2530      C2531   1.411       .  A
C2531      C2532   1.404       .  A
C2531      F2538   1.357       .  S
C2532      C2533   1.404       .  A
C2532      H2537   1.083       .  S
C2533      C2534   1.399   1_455  A
C2534      F2535   1.358   1_556  S
C2539      C2540   1.399       .  A
C2539      C2544   1.392       .  A
C2539      H2546   1.083       .  S
C2540      C2541   1.408       .  A
C2541      C2542   1.385       .  A
C2541      F2548   1.359       .  S
C2542      C2543   1.401       .  A
C2542      H2547   1.084       .  S
C2543      C2544   1.411       .  A
C2544      F2545   1.358       .  S
C2549      C2550   1.414       .  A
C2549      C2554   1.410       .  A
C2549      H2556   1.082       .  S
C2550      C2551   1.408       .  A
C2551      C2552   1.406       .  A
C2551      F2558   1.357   1_565  S
C2552      C2553   1.414       .  A
C2552      H2557   1.083   1_565  S
C2553      C2554   1.408       .  A
C2554      F2555   1.357       .  S
C2559      C2560   1.406   1_455  A
C2559      C2564   1.412       .  A
C2559      H2566   1.083       .  S
C2560      C2561   1.417       .  A
C2561      C2562   1.404       .  A
C2561      F2568   1.358       .  S
C2562      C2563   1.401   1_655  A
C2562      H2567   1.083       .  S
C2563      C2564   1.416       .  A
C2564      F2565   1.357       .  S
C2569      C2570   1.407       .  A
C2569      C2574   1.405       .  A
C2569      H2576   1.083   1_565  S
C2570      C2571   1.416   1_655  A
C2571      C2572   1.404       .  A
C2571      F2578   1.358       .  S
C2572      C2573   1.406   1_455  A
C2572      H2577   1.083       .  S
C2573      C2574   1.416       .  A
C2574      F2575   1.357   1_565  S
C2579      C2580   1.406       .  A
C2579      C2584   1.400       .  A
C2579      H2586   1.082       .  S
C2580      C2581   1.412       .  A
C2581      C2582   1.384       .  A
C2581      F2588   1.358   1_556  S
C2582      C2583   1.397       .  A
C2582      H2587   1.084   1_556  S
C2583      C2584   1.406       .  A
C2584      F2585   1.357       .  S
C2589      C2590   1.402       .  A
C2589      C2594   1.391       .  A
C2589      H2596   1.084   1_565  S
C2590      C2591   1.410       .  A
C2591      C2592   1.403       .  A
C2591      F2598   1.357       .  S
C2592      C2593   1.403       .  A
C2592      H2597   1.084       .  S
C2593      C2594   1.402       .  A
C2594      F2595   1.356       .  S
C2599      C2600   1.406       .  A
C2599      C2604   1.399   1_565  A
C2599      H2606   1.084   1_565  S
C2600      C2601   1.411       .  A
C2601      C2602   1.411       .  A
C2601      F2608   1.356       .  S
C2602      C2603   1.411       .  A
C2602      H2607   1.083       .  S
C2603      C2604   1.414   1_565  A
C2604      F2605   1.358       .  S
C2609      C2610   1.412       .  A
C2609      C2614   1.408       .  A
C2609      H2616   1.083       .  S
C2610      C2611   1.408       .  A
C2611      C2612   1.407       .  A
C2611      F2618   1.357       .  S
C2612      C2613   1.411       .  A
C2612      H2617   1.083       .  S
C2613      C2614   1.407       .  A
C2614      F2615   1.357   1_556  S
C2619      C2620   1.408       .  A
C2619      C2624   1.405       .  A
C2619      H2626   1.083   1_556  S
C2620      C2621   1.406   1_565  A
C2621      C2622   1.400       .  A
C2621      F2628   1.358       .  S
C2622      C2623   1.410   1_545  A
C2622      H2627   1.083       .  S
C2623      C2624   1.412       .  A
C2624      F2625   1.357       .  S
C2629      C2630   1.411       .  A
C2629      C2634   1.394       .  A
C2629      H2636   1.081       .  S
C2630      C2631   1.392       .  A
C2631      C2632   1.387       .  A
C2631      F2638   1.358       .  S
C2632      C2633   1.414       .  A
C2632      H2637   1.083       .  S
C2633      C2634   1.399       .  A
C2634      F2635   1.357       .  S
C2639      C2640   1.402       .  A
C2639      C2644   1.392       .  A
C2639      H2646   1.084       .  S
C2640      C2641   1.405       .  A
C2641      C2642   1.405       .  A
C2641      F2648   1.357       .  S
C2642      C2643   1.410       .  A
C2642      H2647   1.083       .  S
C2643      C2644   1.410       .  A
C2644      F2645   1.358       .  S
C2649      C2650   1.405       .  A
C2649      C2654   1.387       .  A
C2649      H2656   1.083       .  S
C2650      C2651   1.405       .  A
C2651      C2652   1.390       .  A
C2651      F2658   1.358       .  S
C2652      C2653   1.406       .  A
C2652      H2657   1.083       .  S
C2653      C2654   1.405       .  A
C2654      F2655   1.358       .  S
C2659      C2660   1.409       .  A
C2659      C2664   1.413       .  A
C2659      H2666   1.083       .  S
C2660      C2661   1.407       .  A
C2661      C2662   1.398       .  A
C2661      F2668   1.358       .  S
C2662      C2663   1.409       .  A
C2662      H2667   1.084       .  S
C2663      C2664   1.412       .  A
C2664      F2665   1.357       .  S
C2669      C2670   1.402       .  A
C2669      C2674   1.401       .  A
C2669      H2676   1.084       .  S
C2670      C2671   1.401       .  A
C2671      C2672   1.402       .  A
C2671      F2678   1.357       .  S
C2672      C2673   1.412       .  A
C2672      H2677   1.083       .  S
C2673      C2674   1.411       .  A
C2674      F2675   1.357       .  S
C2679      C2680   1.400       .  A
C2679      C2684   1.393       .  A
C2679      H2686   1.084       .  S
C2680      C2681   1.401       .  A
C2681      C2682   1.405       .  A
C2681      F2688   1.357       .  S
C2682      C2683   1.413       .  A
C2682      H2687   1.083       .  S
C2683      C2684   1.409       .  A
C2684      F2685   1.355       .  S
