geometry optimzed in LAMMPS
_audit_creation_date              2020-12-01 
_audit_creation_method            'lammps2cif' 
_symmetry_space_group_name_H-M    'P1' 
_symmetry_Int_Tables_number       1 
_symmetry_cell_setting            triclinic 
loop_ 
_symmetry_equiv_pos_as_xyz 
  x,y,z 
_cell_length_a                    29.56745654 
_cell_length_b                    29.590727188243594 
_cell_length_c                    80.76408015296377 
_cell_angle_alpha                 89.88229062423228 
_cell_angle_beta                  89.91602252651992 
_cell_angle_gamma                 120.21359907719481 
loop_ 
_atom_site_label 
_atom_site_type_symbol 
_atom_site_fract_x 
_atom_site_fract_y 
_atom_site_fract_z 
_atom_site_charge 
Zn1        Zn  0.09893263  0.30397472  0.36996196     1.49700
Zn2        Zn  0.21724112  0.32738087  0.36995428     1.49400
Zn3        Zn  0.19166046  0.42102003  0.37173739     1.49100
Zn4        Zn  0.17012412  0.34507611  0.40153265     1.49500
O5          O  0.16948550  0.34931169  0.37804555    -1.82700
O6          O  0.09638433  0.24924315  0.35472460    -0.73300
O7          O  0.27433656  0.38452687  0.35646984    -0.73100
O8          O  0.13532921  0.42741354  0.35975414    -0.72700
O9          O  0.18060645  0.27358206  0.35245337    -0.73300
O10         O  0.07955364  0.34399801  0.35451738    -0.72900
O11         O  0.24567189  0.44100009  0.35394317    -0.73500
O12         O  0.20386192  0.41291144  0.41171039    -0.72900
O13         O  0.24346491  0.29821092  0.38834372    -0.73700
O14         O  0.22010485  0.47030923  0.39148999    -0.73100
O15         O  0.20522903  0.30905962  0.41028773    -0.73500
O16         O  0.10015343  0.30958561  0.41031917    -0.73400
O17         O  0.04648817  0.27550711  0.38879932    -0.73200
C18         C  0.13353955  0.24694684  0.34752048     0.78600
C19         C  0.27483691  0.42319930  0.34932239     0.79100
C20         C  0.09697409  0.39215908  0.35161266     0.78000
C21         C  0.22136603  0.45916766  0.40669025     0.78400
C22         C  0.23339252  0.29282314  0.40386496     0.79500
C23         C  0.05483348  0.28341025  0.40428543     0.78600
Zn24       Zn  0.02959343  0.46847620  0.25484598     1.49700
Zn25       Zn  0.00331632  0.01009727  0.28534265     1.49400
Zn26       Zn  0.04580589  0.07960685  0.25472393     1.49100
Zn27       Zn  0.42380680  0.47403825  0.25416985     1.49500
O28         O  0.00193952  0.00722905  0.26189050    -1.82700
O29         O  0.04824648  0.44409352  0.27638034    -0.73300
O30         O  0.05912372  0.07463901  0.29439849    -0.73100
O31         O  0.10271948  0.08435282  0.24055122    -0.72700
O32         O  0.98946851  0.44710988  0.29256582    -0.73300
O33         O  0.09342448  0.00482523  0.24050023    -0.72900
O34         O  0.07688601  0.13118446  0.27394414    -0.73500
O35         O  0.42933795  0.03016605  0.23723077    -0.72900
O36         O  0.44555704  0.52585140  0.28987154    -0.73700
O37         O  0.50805760  0.10169343  0.23791251    -0.73100
O38         O  0.38158474  0.46079690  0.27615504    -0.73500
O39         O  0.40523077  0.40797033  0.24083288    -0.73400
O40         O  0.48002588  0.40768640  0.24035586    -0.73200
C41         C  0.02479993  0.43547576  0.29035257     0.78600
C42         C  0.08068917  0.12101695  0.28906921     0.79100
C43         C  0.11566589  0.05200071  0.23528853     0.78000
C44         C  0.46268223  0.07516544  0.23161019     0.78400
C45         C  0.39860412  0.48904978  0.28921273     0.79500
C46         C  0.43276567  0.38852250  0.23566422     0.78600
C47         C  0.16652911  0.33001107  0.81149780     0.46900
H48         H  0.16642584  0.32993230  0.82522802    -0.02100
C49         C  0.16674546  0.33046451  0.77945316     0.47000
H50         H  0.16718157  0.33090618  0.76572683    -0.02100
C51         C  0.14198695  0.36314008  0.80366671    -0.15800
C52         C  0.22443287  0.35498179  0.80370559    -0.15600
C53         C  0.13339553  0.27216044  0.80373310    -0.15900
C54         C  0.14258706  0.36165770  0.78655257    -0.15900
C55         C  0.22215583  0.35470425  0.78660698    -0.15500
C56         C  0.13520863  0.27472268  0.78658134    -0.15800
C57         C  0.49735743  0.99617323  0.82509303     0.46900
H58         H  0.50098444  0.49688775  0.81148438    -0.02100
C59         C  0.49647408  0.99293930  0.85712570     0.47000
H60         H  0.49617015  0.99120328  0.87084866    -0.02100
C61         C  0.02806132  0.05287304  0.83354606    -0.15800
C62         C  0.44267186  0.47022358  0.83302147    -0.15600
C63         C  0.02765941  0.46607632  0.83278968    -0.15900
C64         C  0.02540133  0.04850362  0.85063837    -0.15900
C65         C  0.44489603  0.47038347  0.85012626    -0.15500
C66         C  0.02778638  0.46806805  0.84986151    -0.15800
C67         C  0.16833092  0.32286913  0.52300080     0.46900
H68         H  0.16610089  0.31383861  0.53619065    -0.02100
C69         C  0.16871068  0.33688437  0.49144549     0.47000
H70         H  0.16900532  0.34252985  0.47787368    -0.02100
C71         C  0.20096217  0.30432260  0.51343663    -0.15800
C72         C  0.11324020  0.29583828  0.51585830    -0.15600
C73         C  0.19137704  0.38083718  0.51912927    -0.15900
C74         C  0.20214889  0.31022891  0.49661684    -0.15900
C75         C  0.11088383  0.29981420  0.49889422    -0.15500
C76         C  0.19301091  0.39086781  0.50197900    -0.15800
C77         C  0.33433226  0.17124494  0.47693555     0.46900
H78         H  0.33123209  0.17256330  0.49058247    -0.02100
C79         C  0.34254700  0.16868344  0.44519327     0.47000
H80         H  0.34721666  0.16513750  0.43199687    -0.02100
C81         C  0.31207778  0.11302323  0.46972490    -0.15800
C82         C  0.30299073  0.19467568  0.46699445    -0.15600
C83         C  0.39374767  0.20478780  0.47067067    -0.15900
C84         C  0.31576527  0.11410662  0.45266459    -0.15900
C85         C  0.30863446  0.19204142  0.44969852    -0.15500
C86         C  0.39513719  0.20245320  0.45383722    -0.15800
Zn87       Zn  0.31130615  0.10447547  0.60034617     1.49700
Zn88       Zn  0.29356125  0.20227059  0.59865428     1.49400
Zn89       Zn  0.41044744  0.21919828  0.60113008     1.49100
Zn90       Zn  0.34549744  0.17616423  0.56924272     1.49500
O91         O  0.34006096  0.17579029  0.59264323    -1.82700
O92         O  0.25334413  0.08834799  0.61600682    -0.73300
O93         O  0.33013489  0.25701680  0.61595978    -0.73100
O94         O  0.42529655  0.17761249  0.61744730    -0.72700
O95         O  0.23155138  0.14919210  0.61233507    -0.73300
O96         O  0.35963191  0.09599305  0.61534689    -0.72900
O97         O  0.41251084  0.27411155  0.61573410    -0.73500
O98         O  0.41576518  0.21599501  0.56127284    -0.72900
O99         O  0.27303519  0.22985182  0.57820287    -0.73700
O100        O  0.46677437  0.24950957  0.58323262    -0.73100
O101        O  0.30922391  0.20639531  0.55835115    -0.73500
O102        O  0.31845078  0.10745225  0.55999031    -0.73400
O103        O  0.28915495  0.05334236  0.58154397    -0.73200
C104        C  0.22646209  0.10918436  0.62003587     0.78600
C105        C  0.37604874  0.27952682  0.62200660     0.79100
C106        C  0.40120110  0.13033837  0.62234140     0.78000
C107        C  0.46033064  0.24309452  0.56764023     0.78400
C108        C  0.28293978  0.22694685  0.56294346     0.79500
C109        C  0.29620660  0.06192992  0.56602779     0.78600
Zn110      Zn  0.00127670  0.50398607  0.68854636     1.49700
Zn111      Zn  0.46481996  0.03600431  0.71653172     1.49400
Zn112      Zn  0.46335967  0.42622618  0.71759365     1.49100
Zn113      Zn  0.07190481  0.03427857  0.71604314     1.49500
O114        O  0.00096141  0.50068498  0.71138985    -1.82700
O115        O  0.50040667  0.06027517  0.67820029    -0.73300
O116        O  0.40440582  0.49122035  0.73152684    -0.73100
O117        O  0.43087890  0.37921940  0.69750603    -0.72700
O118        O  0.44767593  0.06641637  0.69639325    -0.73300
O119        O  0.44138835  0.43959829  0.67916245    -0.72900
O120        O  0.40842091  0.41821026  0.73303156    -0.73500
O121        O  0.08202790  0.48544569  0.73223423    -0.72900
O122        O  0.01099753  0.09085899  0.73206777    -0.73700
O123        O  0.00715189  0.40941955  0.73118739    -0.73100
O124        O  0.08778635  0.09390672  0.73118489    -0.73500
O125        O  0.11949578  0.05667438  0.69534190    -0.73400
O126        O  0.06139293  0.00009737  0.67773969    -0.73200
C127        C  0.46856051  0.07519823  0.68202542     0.78600
C128        C  0.38883014  0.44587803  0.73746983     0.79100
C129        C  0.42333463  0.39229719  0.68313249     0.78000
C130        C  0.05313416  0.43818306  0.73689240     0.78400
C131        C  0.05782008  0.10924179  0.73704602     0.79500
C132        C  0.10773373  0.03538906  0.68103145     0.78600
C133        C  0.33476728  0.16827599  0.15945759     0.46900
H134        H  0.33500030  0.17165743  0.14578868    -0.02100
C135        C  0.33493657  0.16030551  0.19127386     0.47000
H136        H  0.33369409  0.15489289  0.20467402    -0.02100
C137        C  0.27704396  0.13143206  0.16709193    -0.15800
C138        C  0.36954520  0.14369180  0.16551022    -0.15600
C139        C  0.35765480  0.22399512  0.16899884    -0.15900
C140        C  0.27942965  0.12921673  0.18424367    -0.15900
C141        C  0.36947430  0.14210780  0.18242661    -0.15500
C142        C  0.35534187  0.21725179  0.18630650    -0.15800
C143        C  0.00133996  0.99800443  0.14692570     0.46900
H144        H  0.00307807  0.00126440  0.16061318    -0.02100
C145        C  0.99643125  0.98963039  0.11498517     0.47000
H146        H  0.99339115  0.98509169  0.10133100    -0.02100
C147        C  0.46854775  0.44133286  0.13855628    -0.15800
C148        C  0.46825256  0.02176463  0.13828373    -0.15600
C149        C  0.05812106  0.02854795  0.13808039    -0.15900
C150        C  0.46864471  0.44175855  0.12139113    -0.15900
C151        C  0.46762299  0.01644096  0.12130434    -0.15500
C152        C  0.05303625  0.02232451  0.12096656    -0.15800
Zn153      Zn  0.13509098  0.36861833  0.93359264     1.49700
Zn154      Zn  0.23851482  0.36003429  0.93410139     1.49400
Zn155      Zn  0.12691642  0.25689488  0.93388123     1.49100
Zn156      Zn  0.16677080  0.32863649  0.90265723     1.49500
O157        O  0.16698295  0.32866520  0.92633576    -1.82700
O158        O  0.18296685  0.42356066  0.94915085    -0.73300
O159        O  0.24410224  0.31244397  0.95034399    -0.73100
O160        O  0.07368170  0.25087159  0.94981979    -0.72700
O161        O  0.25763898  0.42296781  0.94832870    -0.73300
O162        O  0.07413212  0.32599541  0.94853137    -0.72900
O163        O  0.16867499  0.23743529  0.94877590    -0.73500
O164        O  0.12218378  0.26020640  0.89318467    -0.72900
O165        O  0.28870814  0.37679638  0.91499650    -0.73700
O166        O  0.09428364  0.20666964  0.91486948    -0.73100
O167        O  0.23511018  0.35249255  0.89341769    -0.73500
O168        O  0.14352581  0.37336797  0.89303007    -0.73400
O169        O  0.11558590  0.39959000  0.91444691    -0.73200
C170        C  0.22903297  0.43966062  0.95441301     0.78600
C171        C  0.21317387  0.26616020  0.95537458     0.79100
C172        C  0.05841212  0.28137999  0.95505813     0.78000
C173        C  0.09676886  0.21482811  0.89929261     0.78400
C174        C  0.28040903  0.37166119  0.89942804     0.79500
C175        C  0.12234132  0.39768895  0.89891920     0.78600
Zn176      Zn  0.36992570  0.12563369  0.03758077     1.49700
Zn177      Zn  0.36785984  0.23292749  0.03781971     1.49400
Zn178      Zn  0.26114497  0.12309421  0.03656336     1.49100
Zn179      Zn  0.33113267  0.16002620  0.06842107     1.49500
O180        O  0.33255159  0.16048407  0.04478970    -1.82700
O181        O  0.43005934  0.17349557  0.02332742    -0.73300
O182        O  0.32293860  0.24453865  0.02228466    -0.73100
O183        O  0.25319873  0.07076001  0.01962655    -0.72700
O184        O  0.42726951  0.24708628  0.02275110    -0.73300
O185        O  0.32699660  0.06865878  0.02125151    -0.72900
O186        O  0.24627522  0.17038061  0.02269892    -0.73500
O187        O  0.26121245  0.11931089  0.07691945    -0.72900
O188        O  0.38868332  0.28314907  0.05711701    -0.73700
O189        O  0.20893735  0.08850467  0.05512570    -0.73100
O190        O  0.35906783  0.22837028  0.07839918    -0.73500
O191        O  0.36986350  0.12997431  0.07812520    -0.73400
O192        O  0.39497573  0.10042650  0.05684644    -0.73200
C193        C  0.44475658  0.21848866  0.01729312     0.78600
C194        C  0.27691577  0.21572155  0.01680744     0.79100
C195        C  0.28340811  0.05514276  0.01429748     0.78000
C196        C  0.21623364  0.09232645  0.07073878     0.78400
C197        C  0.38146716  0.27427547  0.07264128     0.79500
C198        C  0.39235111  0.10673611  0.07235991     0.78600
C199        C  0.26151220  0.23199039  0.00152354    -0.03900
C200        C  0.29452361  0.24591301  0.98740069    -0.01000
C201        C  0.27770521  0.25452628  0.97204975     0.04000
C202        C  0.22747858  0.24831474  0.97055345    -0.03900
C203        C  0.19397982  0.23311910  0.98456695    -0.01000
C204        C  0.21147453  0.22618924  0.00006807     0.04000
C205        C  0.34482612  0.24858409  0.98826458     0.38600
C206        C  0.14169413  0.22546324  0.98327549     0.38600
C207        C  0.17888519  0.21528273  0.01467564     0.37000
C208        C  0.31143029  0.26782988  0.95760790     0.37000
N209        N  0.15314895  0.20730983  0.02634449    -0.37800
N210        N  0.33840307  0.27817909  0.94613383    -0.37800
N211        N  0.09956708  0.21839741  0.98251404    -0.37200
N212        N  0.38492650  0.25067410  0.98865555    -0.37200
C213        C  0.24654321  0.47374855  0.96931851    -0.03900
C214        C  0.27205276  0.46335181  0.98241009    -0.01000
C215        C  0.28079556  0.98427133  0.99642459     0.04000
C216        C  0.27033764  0.02543259  0.99850625    -0.03900
C217        C  0.25265600  0.04225057  0.98476073    -0.01000
C218        C  0.22983967  0.51038433  0.97183126     0.04000
C219        C  0.28629722  0.42322001  0.98076894     0.38600
C220        C  0.24373383  0.08601602  0.98621066     0.38600
C221        C  0.20544652  0.52329728  0.95844549     0.37000
C222        C  0.29582494  0.96443296  0.01054669     0.37000
N223        N  0.18588950  0.53366621  0.94784890    -0.37800
N224        N  0.30727175  0.94793793  0.02176007    -0.37800
N225        N  0.23599042  0.12054626  0.98709146    -0.37200
N226        N  0.29756968  0.39112791  0.97967037    -0.37200
C227        C  0.02686220  0.26666971  0.97046001    -0.03900
C228        C  0.48872332  0.21421271  0.97341100    -0.01000
C229        C  0.46500746  0.19788996  0.98906572     0.04000
C230        C  0.47707634  0.23480658  0.00197496    -0.03900
C231        C  0.01584177  0.28847258  0.99890384    -0.01000
C232        C  0.04092301  0.30372085  0.98338828     0.04000
C233        C  0.47322771  0.17632417  0.96008221     0.38600
C234        C  0.02967142  0.32734707  0.01178129     0.38600
C235        C  0.08361486  0.35706898  0.98128585     0.37000
C236        C  0.42659703  0.14295505  0.99137446     0.37000
N237        N  0.11778038  0.39964531  0.97992129    -0.37800
N238        N  0.39665485  0.09883380  0.99281564    -0.37800
N239        N  0.04107951  0.35896566  0.02185932    -0.37200
N240        N  0.46077886  0.14594189  0.94953955    -0.37200
C241        C  0.44657549  0.39484831  0.10997458    -0.03900
C242        C  0.47639966  0.39495336  0.09608240    -0.01000
C243        C  0.45343249  0.35847788  0.08323914     0.04000
C244        C  0.40183706  0.31752265  0.08470050    -0.03900
C245        C  0.37173064  0.31508380  0.09860537    -0.01000
C246        C  0.39329120  0.35427158  0.11094199     0.04000
C247        C  0.53178572  0.43012376  0.09443070     0.38600
C248        C  0.31649009  0.27566400  0.09906534     0.38600
C249        C  0.35733431  0.35743274  0.12240818     0.37000
C250        C  0.48379690  0.36293530  0.06847481     0.37000
N251        N  0.32605261  0.35879950  0.13066177    -0.37800
N252        N  0.50806371  0.36729378  0.05671457    -0.37800
N253        N  0.27242815  0.24442087  0.09905294    -0.37200
N254        N  0.07762537  0.45104131  0.09152085    -0.37200
C255        C  0.41349261  0.08490478  0.08438548    -0.03900
C256        C  0.44483293  0.11570635  0.09761752    -0.01000
C257        C  0.46328815  0.09391405  0.10948714     0.04000
C258        C  0.44560039  0.03945454  0.10934276    -0.03900
C259        C  0.41187829  0.00876796  0.09632593    -0.01000
C260        C  0.39823578  0.03189821  0.08354682     0.04000
C261        C  0.46187611  0.17109326  0.09821382     0.38600
C262        C  0.38453055  0.45671462  0.09403355     0.38600
C263        C  0.36692803  0.00037674  0.06966842     0.37000
C264        C  0.00624998  0.12940732  0.12075837     0.37000
N265        N  0.32054531  0.47539291  0.06068620    -0.37800
N266        N  0.04125249  0.15943360  0.12857234    -0.37800
N267        N  0.36476274  0.41291378  0.09074146    -0.37200
N268        N  0.97383844  0.21568669  0.10056674    -0.37200
C269        C  0.17211216  0.06812178  0.08246691    -0.03900
C270        C  0.17697719  0.04608073  0.09737991    -0.01000
C271        C  0.13874893  0.03082550  0.10992442     0.04000
C272        C  0.09635625  0.04040215  0.10813579    -0.03900
C273        C  0.09279259  0.06315338  0.09290924    -0.01000
C274        C  0.12897400  0.07459532  0.08002203     0.04000
C275        C  0.22069613  0.03709913  0.09952571     0.38600
C276        C  0.05439670  0.07847348  0.08982856     0.38600
C277        C  0.12313247  0.09602935  0.06441576     0.37000
C278        C  0.14135337  0.00002955  0.12346299     0.37000
N279        N  0.11809773  0.11275360  0.05203437    -0.37800
N280        N  0.14510776  0.97378585  0.13335699    -0.37800
N281        N  0.02779185  0.09346182  0.08479001    -0.37200
N282        N  0.25576618  0.03035214  0.10109058    -0.37200
C283        C  0.39685508  0.11779275  0.15559766    -0.03900
C284        C  0.36709794  0.07019233  0.14686543    -0.01000
C285        C  0.38826285  0.03718480  0.14240836     0.04000
C286        C  0.44059249  0.04981891  0.14657954    -0.03900
C287        C  0.46954663  0.09653120  0.15572123    -0.01000
C288        C  0.45019396  0.13184871  0.15854723     0.04000
C289        C  0.31353442  0.05411000  0.14267181     0.38600
C290        C  0.02063528  0.10688586  0.16260314     0.38600
C291        C  0.48846716  0.18572041  0.16185496     0.37000
C292        C  0.34582050  0.49244600  0.13274698     0.37000
N293        N  0.52145579  0.22876988  0.16334706    -0.37800
N294        N  0.31728956  0.45504125  0.12555909    -0.37800
N295        N  0.06156521  0.11690811  0.16731107    -0.37200
N296        N  0.27070509  0.04077000  0.13918656    -0.37200
C297        C  0.38533163  0.27960072  0.16065014    -0.03900
C298        C  0.43012384  0.29726284  0.15036067    -0.01000
C299        C  0.46017309  0.35063574  0.14478286     0.04000
C300        C  0.44534792  0.38866909  0.14843153    -0.03900
C301        C  0.40026855  0.37084659  0.15855927    -0.01000
C302        C  0.36843914  0.31655971  0.16305886     0.04000
C303        C  0.44110666  0.25913084  0.14316907     0.38600
C304        C  0.38254019  0.40702674  0.16270398     0.38600
C305        C  0.31313662  0.29685835  0.16500290     0.37000
C306        C  0.50684417  0.36572200  0.13508693     0.37000
N307        N  0.26890712  0.28296125  0.16521645    -0.37800
N308        N  0.04470621  0.37589888  0.12739365    -0.37800
N309        N  0.36788044  0.43555643  0.16595185    -0.37200
N310        N  0.44913192  0.22956707  0.13632949    -0.37200
C311        C  0.11333810  0.05814079  0.14659730    -0.03900
C312        C  0.12798020  0.03320255  0.15878637    -0.01000
C313        C  0.18188508  0.05264557  0.16306620     0.04000
C314        C  0.22312632  0.10279711  0.15775773    -0.03900
C315        C  0.20868279  0.12836325  0.14575165    -0.01000
C316        C  0.15521285  0.10696094  0.14040579     0.04000
C317        C  0.08805333  0.98503735  0.16632114     0.38600
C318        C  0.24842093  0.17873488  0.13947777     0.38600
C319        C  0.14391404  0.13718104  0.12875005     0.37000
C320        C  0.19504237  0.01839432  0.17203931     0.37000
N321        N  0.13697353  0.16220433  0.11918357    -0.37800
N322        N  0.20474939  0.99017619  0.17903110    -0.37800
N323        N  0.28016692  0.21899601  0.13444135    -0.37200
N324        N  0.05677582  0.94691388  0.17269291    -0.37200
C325        C  0.41879891  0.11653344  0.63773511    -0.03900
C326        C  0.47261571  0.13816677  0.64101187    -0.01000
C327        C  0.48912016  0.12988760  0.65648000     0.04000
C328        C  0.45196443  0.09709928  0.66845137    -0.03900
C329        C  0.39811506  0.07563176  0.66524315    -0.01000
C330        C  0.38171413  0.08667344  0.65019814     0.04000
C331        C  0.51119298  0.16758474  0.62830275     0.38600
C332        C  0.35911009  0.03917920  0.67686309     0.38600
C333        C  0.32646364  0.06819832  0.64798179     0.37000
C334        C  0.54467017  0.15484050  0.65997151     0.37000
N335        N  0.28219554  0.05312761  0.64668036    -0.37800
N336        N  0.09036362  0.18090831  0.66302852    -0.37800
N337        N  0.32794487  0.00974607  0.68600238    -0.37200
N338        N  0.54212774  0.19088976  0.61819836    -0.37200
C339        C  0.38554380  0.30707228  0.63805773    -0.03900
C340        C  0.36309008  0.33829854  0.64157814    -0.01000
C341        C  0.37015286  0.36158337  0.65727879     0.04000
C342        C  0.40014048  0.35421408  0.66954049    -0.03900
C343        C  0.42038309  0.32101875  0.66630137    -0.01000
C344        C  0.41323052  0.29765919  0.65068196     0.04000
C345        C  0.33559621  0.34937065  0.62876774     0.38600
C346        C  0.45313755  0.31467007  0.67842955     0.38600
C347        C  0.43594930  0.26484400  0.64781279     0.37000
C348        C  0.34902824  0.39570044  0.66049156     0.37000
N349        N  0.45559057  0.23984600  0.64607931    -0.37800
N350        N  0.83048369  0.42472660  0.66203626    -0.37800
N351        N  0.47967098  0.30986658  0.68794531    -0.37200
N352        N  0.31386356  0.35852309  0.61857485    -0.37200
C353        C  0.19372979  0.08969012  0.63538846    -0.03900
C354        C  0.19474693  0.12588898  0.64713625    -0.01000
C355        C  0.17114052  0.10862343  0.66284909     0.04000
C356        C  0.14531758  0.05497980  0.66697821    -0.03900
C357        C  0.14582082  0.01906704  0.65558786    -0.01000
C358        C  0.16941483  0.03608872  0.63987410     0.04000
C359        C  0.22121904  0.18144920  0.64344739     0.38600
C360        C  0.12269792  0.96437083  0.66021193     0.38600
C361        C  0.16859494  0.99799229  0.62838768     0.37000
C362        C  0.17247224  0.14624841  0.67464962     0.37000
N363        N  0.16843632  0.96761079  0.61934859    -0.37800
N364        N  0.17378652  0.17620231  0.68411636    -0.37800
N365        N  0.10450403  0.92085269  0.66395078    -0.37200
N366        N  0.24185673  0.22585685  0.64072438    -0.37200
C367        C  0.21012389  0.42020201  0.53348958    -0.03900
C368        C  0.23991300  0.41941668  0.54742637    -0.01000
C369        C  0.26727718  0.46415709  0.55748447     0.04000
C370        C  0.27411322  0.01869635  0.55424266    -0.03900
C371        C  0.22013485  0.98434764  0.55444649    -0.01000
C372        C  0.19168046  0.45541590  0.53508598     0.04000
C373        C  0.23078644  0.37132243  0.55506301     0.38600
C374        C  0.18785978  0.98995330  0.56705521     0.38600
C375        C  0.13615045  0.43562716  0.53422241     0.37000
C376        C  0.30317014  0.46595983  0.57010739     0.37000
N377        N  0.09258899  0.42393703  0.53517617    -0.37800
N378        N  0.33157885  0.46728001  0.58019445    -0.37800
N379        N  0.16212916  0.99465926  0.57693332    -0.37200
N380        N  0.22233322  0.33407282  0.56232144    -0.37200
C381        C  0.06878048  0.27844421  0.52808998    -0.03900
C382        C  0.03658291  0.30148795  0.52833800    -0.01000
C383        C  0.00335483  0.29339929  0.54191594     0.04000
C384        C  0.50435608  0.26339172  0.55602359    -0.03900
C385        C  0.03262364  0.23906761  0.55530811    -0.01000
C386        C  0.06490576  0.24584774  0.54164393     0.04000
C387        C  0.03652276  0.33431192  0.51510803     0.38600
C388        C  0.02785678  0.20420689  0.56880264     0.38600
C389        C  0.09090591  0.21565238  0.54164163     0.37000
C390        C  0.47232718  0.31764928  0.54299161     0.37000
N391        N  0.10777918  0.18819268  0.54320804    -0.37800
N392        N  0.44563254  0.33581473  0.54310294    -0.37800
N393        N  0.52659333  0.17592170  0.57938248    -0.37200
N394        N  0.03315884  0.36133489  0.50544464    -0.37200
C395        C  0.26399501  0.24688764  0.54960515    -0.03900
C396        C  0.22512547  0.21109857  0.53881502    -0.01000
C397        C  0.20849259  0.22942172  0.52536582     0.04000
C398        C  0.23023509  0.28371579  0.52286756    -0.03900
C399        C  0.27498810  0.31879818  0.53205530    -0.01000
C400        C  0.29142159  0.30039282  0.54555155     0.04000
C401        C  0.20139637  0.15522997  0.54182296     0.38600
C402        C  0.30269912  0.37432780  0.52839241     0.38600
C403        C  0.33547987  0.33669809  0.55559583     0.37000
C404        C  0.16736030  0.19160673  0.51484379     0.37000
N405        N  0.37042361  0.36570519  0.56365170    -0.37800
N406        N  0.13398961  0.15871466  0.50722877    -0.37800
N407        N  0.32530571  0.41900022  0.52601981    -0.37200
N408        N  0.18273103  0.11079772  0.54424346    -0.37200
C409        C  0.22289506  0.44775927  0.49453795    -0.03900
C410        C  0.21037217  0.48747468  0.49825689    -0.01000
C411        C  0.24666192  0.04483481  0.49091633     0.04000
C412        C  0.28713092  0.05963664  0.47909385    -0.03900
C413        C  0.29722892  0.01922555  0.47399359    -0.01000
C414        C  0.26799343  0.46478485  0.48451351     0.04000
C415        C  0.15630646  0.47310899  0.50006017     0.38600
C416        C  0.34512919  0.03300754  0.46518481     0.38600
C417        C  0.27319472  0.42689832  0.47471505     0.37000
C418        C  0.23748609  0.08443530  0.49799711     0.37000
N419        N  0.27636952  0.39803931  0.46580482    -0.37800
N420        N  0.23019123  0.11556436  0.50409417    -0.37800
N421        N  0.38336010  0.04190129  0.45850286    -0.37200
N422        N  0.11383553  0.46520456  0.50054252    -0.37200
C423        C  0.44685650  0.23247435  0.48037628    -0.03900
C424        C  0.46256590  0.20294111  0.49008579    -0.01000
C425        C  0.01513334  0.22185974  0.49459600     0.04000
C426        C  0.05667447  0.27279859  0.48985866    -0.03900
C427        C  0.04232681  0.30086248  0.47895260    -0.01000
C428        C  0.48776850  0.28460261  0.47641353     0.04000
C429        C  0.42326948  0.15094915  0.49536008     0.38600
C430        C  0.08247698  0.35168118  0.47291551     0.38600
C431        C  0.47475532  0.32369523  0.47162345     0.37000
C432        C  0.02726493  0.18673286  0.50342063     0.37000
N433        N  0.46778398  0.35816616  0.46896657    -0.37800
N434        N  0.03482875  0.15668605  0.51017355    -0.37800
N435        N  0.11402448  0.39222847  0.46797061    -0.37200
N436        N  0.39242050  0.10957024  0.49987204    -0.37200
C437        C  0.27629648  0.22383416  0.47500731    -0.03900
C438        C  0.30605572  0.27309601  0.48277413    -0.01000
C439        C  0.28402877  0.30513068  0.48703213     0.04000
C440        C  0.22932136  0.28693144  0.48574009    -0.03900
C441        C  0.19918830  0.23693315  0.47848735    -0.01000
C442        C  0.22136313  0.20470007  0.47452102     0.04000
C443        C  0.35631148  0.28670185  0.48968299     0.38600
C444        C  0.14386404  0.21677566  0.47585789     0.38600
C445        C  0.18582309  0.14910448  0.47414318     0.37000
C446        C  0.31989892  0.35887800  0.49138681     0.37000
N447        N  0.15458860  0.10521085  0.47484781    -0.37800
N448        N  0.35090020  0.40216725  0.49380631    -0.37800
N449        N  0.09968382  0.19996021  0.47349046    -0.37200
N450        N  0.39444273  0.29701005  0.49664701    -0.37200
C451        C  0.32402353  0.39372909  0.88757063    -0.03900
C452        C  0.36233810  0.44638546  0.88913107    -0.01000
C453        C  0.39758287  0.47206412  0.87612025     0.04000
C454        C  0.39893537  0.44443945  0.86191825    -0.03900
C455        C  0.36011111  0.39053924  0.86058965    -0.01000
C456        C  0.32196434  0.36603124  0.87314821     0.04000
C457        C  0.36332431  0.47560693  0.90379551     0.38600
C458        C  0.36299225  0.35712462  0.84806599     0.38600
C459        C  0.28279639  0.31087202  0.87188184     0.37000
C460        C  0.42815410  0.52799338  0.87751336     0.37000
N461        N  0.25168299  0.26690729  0.87101054    -0.37800
N462        N  0.44648909  0.57157349  0.88089233    -0.37800
N463        N  0.36310759  0.32745995  0.83878400    -0.37200
N464        N  0.36416142  0.49884672  0.91541553    -0.37200
C465        C  0.10038459  0.41894761  0.88697147    -0.03900
C466        C  0.04669806  0.40097234  0.88761679    -0.01000
C467        C  0.02277645  0.41367053  0.87486805     0.04000
C468        C  0.05250718  0.44665938  0.86149536    -0.03900
C469        C  0.10683578  0.46348093  0.86074424    -0.01000
C470        C  0.13029660  0.44908479  0.87336198     0.04000
C471        C  0.01493788  0.36584174  0.90092910     0.38600
C472        C  0.14102928  0.50084729  0.84845938     0.38600
C473        C  0.18617690  0.46799970  0.87290763     0.37000
C474        C  0.96656514  0.38742889  0.87546126     0.37000
N475        N  0.23069687  0.48317354  0.87264480    -0.37800
N476        N  0.92229935  0.36092995  0.87786254    -0.37800
N477        N  0.17109169  0.53120216  0.83928187    -0.37200
N478        N  0.98957808  0.33768786  0.91141314    -0.37200
C479        C  0.04509945  0.09321708  0.86276946    -0.03900
C480        C  0.02939766  0.13141818  0.86167511    -0.01000
C481        C  0.04555051  0.17093217  0.87377871     0.04000
C482        C  0.07450180  0.17088961  0.88761784    -0.03900
C483        C  0.08858845  0.13248669  0.88917721    -0.01000
C484        C  0.07499699  0.09466006  0.87678480     0.04000
C485        C  0.99037921  0.12641620  0.84985384     0.38600
C486        C  0.11952487  0.13322465  0.90334325     0.38600
C487        C  0.09398749  0.05885239  0.87913816     0.37000
C488        C  0.02940265  0.20980174  0.87259794     0.37000
N489        N  0.11247600  0.03445553  0.88332747    -0.37800
N490        N  0.01648118  0.24072708  0.87174618    -0.37800
N491        N  0.14396123  0.13371443  0.91459787    -0.37200
N492        N  0.95873448  0.12426731  0.84095861    -0.37200
C493        C  0.26833803  0.37812956  0.77486796    -0.03900
C494        C  0.26889263  0.34869700  0.76103523    -0.01000
C495        C  0.30674867  0.37199770  0.74853203     0.04000
C496        C  0.34715342  0.42396883  0.75007421    -0.03900
C497        C  0.34924680  0.45330861  0.76405688    -0.01000
C498        C  0.30915792  0.43131780  0.77612636     0.04000
C499        C  0.23216415  0.29370590  0.75905945     0.38600
C500        C  0.39090908  0.00420583  0.76438211     0.38600
C501        C  0.30653175  0.46655968  0.78799251     0.37000
C502        C  0.30333258  0.34238040  0.73370016     0.37000
N503        N  0.30620843  0.49694218  0.79690875    -0.37800
N504        N  0.30071491  0.31889014  0.72194092    -0.37800
N505        N  0.42617964  0.04615897  0.76577511    -0.37200
N506        N  0.20719086  0.25029872  0.75535607    -0.37200
C507        C  0.07421189  0.41743020  0.74957852    -0.03900
C508        C  0.12596647  0.42842123  0.74808644    -0.01000
C509        C  0.14926997  0.41497887  0.76086920     0.04000
C510        C  0.11967859  0.38502513  0.77478860    -0.03900
C511        C  0.06630714  0.37210228  0.77585374    -0.01000
C512        C  0.04458007  0.39006948  0.76364327     0.04000
C513        C  0.15504476  0.45195371  0.73286739     0.38600
C514        C  0.03073496  0.33355805  0.78762464     0.38600
C515        C  0.49128163  0.37715415  0.76548063     0.37000
C516        C  0.20452039  0.43461549  0.75907620     0.37000
N517        N  0.44817922  0.36727979  0.76636306    -0.37800
N518        N  0.24816644  0.45453831  0.75543997    -0.37800
N519        N  0.00028969  0.30221629  0.79649048    -0.37200
N520        N  0.18494970  0.98818739  0.72297226    -0.37200
C521        C  0.07724566  0.14992005  0.74996012    -0.03900
C522        C  0.06814718  0.19167280  0.74816006    -0.01000
C523        C  0.08310140  0.22934396  0.76066522     0.04000
C524        C  0.11170335  0.22871340  0.77476761    -0.03900
C525        C  0.12233792  0.18686360  0.77615678    -0.01000
C526        C  0.10288683  0.14650559  0.76420081     0.04000
C527        C  0.04463825  0.19699205  0.73294195     0.38600
C528        C  0.16042658  0.18906771  0.78788213     0.38600
C529        C  0.11026095  0.10189621  0.76631051     0.37000
C530        C  0.06772075  0.26785026  0.75806968     0.37000
N531        N  0.11568222  0.06597823  0.76773555    -0.37800
N532        N  0.05196830  0.29427960  0.75349031    -0.37800
N533        N  0.19162430  0.18970921  0.79666550    -0.37200
N534        N  0.02608136  0.20125098  0.72086019    -0.37200
C535        C  0.11704384  0.39206361  0.81276810    -0.03900
C536        C  0.07442119  0.36518690  0.82384853    -0.01000
C537        C  0.04184399  0.38627377  0.82859371     0.04000
C538        C  0.05306829  0.43751098  0.82373864    -0.03900
C539        C  0.09602509  0.46463797  0.81279987    -0.01000
C540        C  0.12839577  0.44338205  0.80792952     0.04000
C541        C  0.06178765  0.31382736  0.82973118     0.38600
C542        C  0.10635371  0.01676662  0.80795353     0.38600
C543        C  0.17548687  0.47647330  0.79855551     0.37000
C544        C  0.99421078  0.35257383  0.83761262     0.37000
N545        N  0.21275596  0.50422488  0.79109147    -0.37800
N546        N  0.45830668  0.32450099  0.84584575    -0.37800
N547        N  0.11797176  0.05923868  0.80453400    -0.37200
N548        N  0.05148739  0.27283828  0.83450710    -0.37200
C549        C  0.27868349  0.38030478  0.81278142    -0.03900
C550        C  0.29411652  0.42214736  0.82407688    -0.01000
C551        C  0.34782547  0.45469515  0.82901896     0.04000
C552        C  0.38842780  0.44463454  0.82396457    -0.03900
C553        C  0.37304134  0.40276168  0.81268715    -0.01000
C554        C  0.31925550  0.37007078  0.80777334     0.04000
C555        C  0.25504255  0.43409522  0.83000555     0.38600
C556        C  0.41210640  0.39028029  0.80717033     0.38600
C557        C  0.30561074  0.32368069  0.79818362     0.37000
C558        C  0.36109267  0.50067978  0.83875233     0.37000
N559        N  0.29595095  0.28688884  0.79054171    -0.37800
N560        N  0.36954547  0.53694073  0.84648184    -0.37800
N561        N  0.44331637  0.38001640  0.80301770    -0.37200
N562        N  0.22417740  0.44398995  0.83482735    -0.37200
C563        C  0.05679524  0.10820158  0.82487345    -0.03900
C564        C  0.03044543  0.12402245  0.81363358    -0.01000
C565        C  0.05254250  0.17765870  0.80833904     0.04000
C566        C  0.10401578  0.21789945  0.81300286    -0.03900
C567        C  0.13009343  0.20235136  0.82442463    -0.01000
C568        C  0.10782174  0.14883982  0.82988219     0.04000
C569        C  0.47936566  0.08619767  0.80812762     0.38600
C570        C  0.18199664  0.24108845  0.82990618     0.38600
C571        C  0.13959111  0.13604693  0.84030686     0.37000
C572        C  0.02039113  0.19141172  0.79848188     0.37000
N573        N  0.16630164  0.12798314  0.84876307    -0.37800
N574        N  0.99377517  0.20106480  0.79055591    -0.37800
N575        N  0.22355656  0.27177391  0.83427013    -0.37200
N576        N  0.43747664  0.05583782  0.80393825    -0.37200
C577        C  0.41034302  0.34310257  0.22373673    -0.03900
C578        C  0.36387817  0.32818458  0.21465203    -0.01000
C579        C  0.34420002  0.28561562  0.20335866     0.04000
C580        C  0.37189901  0.25902569  0.20004571    -0.03900
C581        C  0.40747560  0.26467496  0.21285941    -0.01000
C582        C  0.43285297  0.31084929  0.22225605     0.04000
C583        C  0.33319337  0.35326259  0.21767336     0.38600
C584        C  0.40137734  0.21930840  0.22169910     0.38600
C585        C  0.47759883  0.31961261  0.23215690     0.37000
C586        C  0.28921677  0.26098430  0.19979916     0.37000
N587        N  0.51319560  0.32612664  0.23995872    -0.37800
N588        N  0.24485062  0.24554619  0.19883629    -0.37800
N589        N  0.39553453  0.18435758  0.22976888    -0.37200
N590        N  0.30756909  0.37195116  0.22010647    -0.37200
C591        C  0.44829756  0.09473501  0.21669156    -0.03900
C592        C  0.41411968  0.05825221  0.20493179    -0.01000
C593        C  0.38830050  0.07291367  0.19340218     0.04000
C594        C  0.40183092  0.12585280  0.19220498    -0.03900
C595        C  0.44680722  0.16384793  0.20065494    -0.01000
C596        C  0.46803861  0.14847748  0.21364898     0.04000
C597        C  0.40789979  0.00649697  0.20413940     0.38600
C598        C  0.47121663  0.21866899  0.19612890     0.38600
C599        C  0.50819286  0.18801792  0.22411707     0.37000
C600        C  0.34534595  0.03249249  0.18397988     0.37000
N601        N  0.03107724  0.21703900  0.23628574    -0.37800
N602        N  0.31079053  0.99881468  0.17695165    -0.37800
N603        N  0.49145653  0.26253520  0.19259028    -0.37200
N604        N  0.40497330  0.96609493  0.20342375    -0.37200
C605        C  0.15577720  0.06956402  0.22199676    -0.03900
C606        C  0.19632731  0.05827785  0.22290218    -0.01000
C607        C  0.23423093  0.07478212  0.21020007     0.04000
C608        C  0.23377701  0.10527225  0.19650095    -0.03900
C609        C  0.19220729  0.11648254  0.19584620    -0.01000
C610        C  0.15314564  0.09772606  0.20826044     0.04000
C611        C  0.20080981  0.03197031  0.23751691     0.38600
C612        C  0.18893251  0.14886911  0.18301063     0.38600
C613        C  0.10982087  0.10765166  0.20684297     0.37000
C614        C  0.27335961  0.05962909  0.21204477     0.37000
N615        N  0.07555044  0.11582976  0.20577091    -0.37800
N616        N  0.30242283  0.04582415  0.21542932    -0.37800
N617        N  0.18349106  0.17469437  0.17335797    -0.37200
N618        N  0.20470226  0.01150254  0.24920411    -0.37200
C619        C  0.07650022  0.40652600  0.33688721    -0.03900
C620        C  0.11237980  0.44433335  0.32558664    -0.01000
C621        C  0.09633264  0.44772549  0.30945300     0.04000
C622        C  0.04286081  0.41911436  0.30513596    -0.03900
C623        C  0.00620552  0.38383221  0.31677806    -0.01000
C624        C  0.02315992  0.37621788  0.33234073     0.04000
C625        C  0.16618793  0.48019223  0.33036058     0.38600
C626        C  0.95094161  0.35489475  0.31267923     0.38600
C627        C  0.98528530  0.33810808  0.34382009     0.37000
C628        C  0.11831378  0.90915216  0.28963096     0.37000
N629        N  0.95497585  0.30752941  0.35290795    -0.37800
N630        N  0.14672682  0.92317935  0.27844641    -0.37800
N631        N  0.40640352  0.33925934  0.31160901    -0.37200
N632        N  0.17787247  0.86229809  0.31778360    -0.37200
C633        C  0.12283331  0.21660400  0.33198932    -0.03900
C634        C  0.14637781  0.18604314  0.32896722    -0.01000
C635        C  0.13757592  0.15923479  0.31384129     0.04000
C636        C  0.10470108  0.16227212  0.30171849    -0.03900
C637        C  0.08334834  0.19481615  0.30437317    -0.01000
C638        C  0.09261580  0.22214706  0.31937834     0.04000
C639        C  0.17726856  0.17972495  0.34174147     0.38600
C640        C  0.54072204  0.19222936  0.29301506     0.38600
C641        C  0.07077851  0.25601108  0.32164347     0.37000
C642        C  0.16074800  0.12675871  0.31097768     0.37000
N643        N  0.05282218  0.28262890  0.32315453    -0.37800
N644        N  0.17910679  0.10076179  0.30873592    -0.37800
N645        N  0.51281871  0.19345491  0.28321986    -0.37200
N646        N  0.20172071  0.17451727  0.35195123    -0.37200
C647        C  0.36673296  0.47648156  0.30465939    -0.03900
C648        C  0.39123127  0.48173325  0.32032387    -0.01000
C649        C  0.36134254  0.46632483  0.33498075     0.04000
C650        C  0.30696092  0.44496689  0.33425581    -0.03900
C651        C  0.28224408  0.43940866  0.31878622    -0.01000
C652        C  0.31218425  0.45645037  0.30409092     0.04000
C653        C  0.44694323  0.50046999  0.32160660     0.38600
C654        C  0.22553388  0.41154737  0.31776952     0.38600
C655        C  0.28671015  0.45368846  0.28847796     0.37000
C656        C  0.38634216  0.47078806  0.35084981     0.37000
N657        N  0.26620928  0.45172719  0.27608133    -0.37800
N658        N  0.40611585  0.47396203  0.36348819    -0.37800
N659        N  0.18035027  0.38820139  0.31685338    -0.37200
N660        N  0.49126938  0.51542035  0.32281593    -0.37200
C661        C  0.28932129  0.06831885  0.44073212    -0.05100
C662        C  0.23436268  0.03268028  0.44108894    -0.01000
C663        C  0.21435778  0.50231215  0.43204211     0.04000
C664        C  0.24544824  0.49976713  0.41930859    -0.03900
C665        C  0.29288323  0.02999354  0.41394713    -0.01000
C666        C  0.31807393  0.06488137  0.42708625     0.04000
C667        C  0.20124867  0.03195264  0.45431709     0.38600
C668        C  0.32313340  0.02697849  0.40017216     0.38600
C669        C  0.37430192  0.09319057  0.42656476     0.37000
C670        C  0.15767808  0.47055499  0.43105977     0.37000
N671        N  0.41858363  0.11075509  0.42440918    -0.37800
N672        N  0.11257151  0.44497218  0.43034390    -0.37800
N673        N  0.34724660  0.02441494  0.38928827    -0.37200
N674        N  0.17110348  0.02669248  0.46436145    -0.37200
C675        C  0.01205020  0.26169549  0.41620256    -0.03900
C676        C  0.48940893  0.29534248  0.42175405    -0.01000
C677        C  0.45208011  0.27612755  0.43456428     0.04000
C678        C  0.44316926  0.23142018  0.44365799    -0.03900
C679        C  0.47582244  0.21023394  0.44109414    -0.01000
C680        C  0.50822899  0.22535549  0.42708370     0.04000
C681        C  0.99904933  0.33710739  0.41134644     0.38600
C682        C  0.47588440  0.17238761  0.45248610     0.38600
C683        C  0.02817415  0.18852272  0.42108763     0.37000
C684        C  0.42290819  0.30235033  0.43817915     0.37000
N685        N  0.04480870  0.16257068  0.41667314    -0.37800
N686        N  0.40017493  0.32396137  0.44088601    -0.37800
N687        N  0.47788074  0.14267508  0.46134134    -0.37200
N688        N  0.00902331  0.37514135  0.40430998    -0.37200
C689        C  0.28752257  0.21153056  0.43573008    -0.03900
C690        C  0.31585387  0.23782154  0.42093895    -0.01000
C691        C  0.30083820  0.26838013  0.41158428     0.04000
C692        C  0.25275580  0.26551733  0.41478685    -0.03900
C693        C  0.22056336  0.23153349  0.42754916    -0.01000
C694        C  0.23548878  0.19989007  0.43613756     0.04000
C695        C  0.35250886  0.22642931  0.41270117     0.38600
C696        C  0.17203177  0.22853531  0.43229292     0.38600
C697        C  0.19562245  0.14575186  0.43828950     0.37000
C698        C  0.33647764  0.30439687  0.39916324     0.37000
N699        N  0.16298039  0.10227380  0.43884381    -0.37800
N700        N  0.36556009  0.33341497  0.38948533    -0.37800
N701        N  0.13451929  0.22791422  0.43668495    -0.37200
N702        N  0.38019020  0.21691550  0.40525398    -0.37200
Zn703      Zn  0.09350656  0.78193128  0.37263393     1.49700
Zn704      Zn  0.21377180  0.81034293  0.37061651     1.49400
Zn705      Zn  0.18361663  0.90075515  0.36974238     1.49100
Zn706      Zn  0.17189461  0.83640472  0.40173559     1.49500
O707        O  0.16584498  0.83238269  0.37836138    -1.82700
O708        O  0.08876410  0.71909319  0.36152193    -0.73300
O709        O  0.26811664  0.86548127  0.35519847    -0.73100
O710        O  0.12682439  0.89675738  0.35508602    -0.72700
O711        O  0.17229635  0.75263010  0.35456538    -0.73300
O712        O  0.07018497  0.81127856  0.35426634    -0.72900
O713        O  0.23944031  0.92167353  0.35271508    -0.73500
O714        O  0.20715848  0.90756502  0.40949595    -0.72900
O715        O  0.24255407  0.78458197  0.38985730    -0.73700
O716        O  0.20721408  0.95533067  0.38813742    -0.73100
O717        O  0.20716361  0.80149709  0.41113341    -0.73500
O718        O  0.10413527  0.80432074  0.41226751    -0.73400
O719        O  0.04506479  0.76305982  0.39256361    -0.73200
C720        C  0.12400410  0.72026196  0.35213741     0.78600
C721        C  0.26821671  0.90380009  0.34781263     0.79100
C722        C  0.08783788  0.85718764  0.34859020     0.78000
C723        C  0.21613138  0.95056379  0.40332635     0.78400
C724        C  0.23389950  0.78254862  0.40548396     0.79500
C725        C  0.05731072  0.77623586  0.40763681     0.78600
Zn726      Zn  0.02971335  0.96283479  0.25507027     1.49700
Zn727      Zn  0.00013287  0.51197324  0.28243266     1.49400
Zn728      Zn  0.03782460  0.58190604  0.25481581     1.49100
Zn729      Zn  0.43020344  0.97988372  0.25360926     1.49500
O730        O  0.99780929  0.50858455  0.25971197    -1.82700
O731        O  0.04128755  0.92590624  0.27520776    -0.73300
O732        O  0.06788506  0.56760051  0.29046120    -0.73100
O733        O  0.09896755  0.59290578  0.24158808    -0.72700
O734        O  0.01237943  0.95566706  0.29527427    -0.73300
O735        O  0.09126877  0.51380882  0.24079679    -0.72900
O736        O  0.06073863  0.62675396  0.27599836    -0.73500
O737        O  0.41757198  0.52339418  0.23820541    -0.72900
O738        O  0.43743023  0.00203359  0.29375724    -0.73700
O739        O  0.49507049  0.59701267  0.23887047    -0.73100
O740        O  0.38056987  0.96590598  0.27317942    -0.73500
O741        O  0.40696728  0.91319529  0.24044105    -0.73400
O742        O  0.48004977  0.91043472  0.23883114    -0.73200
C743        C  0.02931403  0.92635955  0.29043363     0.78600
C744        C  0.07479644  0.61317976  0.28916962     0.79100
C745        C  0.11305679  0.56146397  0.23620607     0.78000
C746        C  0.44936937  0.56944600  0.23282613     0.78400
C747        C  0.39103481  0.97903928  0.28836291     0.79500
C748        C  0.43248430  0.89230806  0.23482279     0.78600
C749        C  0.16496374  0.83140806  0.81061191     0.46900
H750        H  0.16550072  0.83159821  0.82433982    -0.02100
C751        C  0.16354554  0.83101158  0.77856001     0.47000
H752        H  0.16267095  0.83092022  0.76482125    -0.02100
C753        C  0.13988956  0.86414000  0.80290443    -0.15800
C754        C  0.22239150  0.85599929  0.80247009    -0.15600
C755        C  0.13169827  0.77355315  0.80310275    -0.15900
C756        C  0.14018322  0.86267246  0.78580100    -0.15900
C757        C  0.21935423  0.85507476  0.78531696    -0.15500
C758        C  0.13259706  0.77571831  0.78601661    -0.15800
C759        C  0.50077524  0.49702710  0.82521749     0.46900
H760        H  0.49781001  0.99760060  0.81136843    -0.02100
C761        C  0.50043962  0.49731041  0.85728110     0.47000
H762        H  0.50043447  0.49736480  0.87103093    -0.02100
C763        C  0.03259066  0.55544536  0.83282624    -0.15800
C764        C  0.43915402  0.96906402  0.83287763    -0.15600
C765        C  0.02271724  0.96337278  0.83254695    -0.15900
C766        C  0.03080703  0.55281826  0.84991591    -0.15900
C767        C  0.44116927  0.96742287  0.84998321    -0.15500
C768        C  0.02202101  0.96378780  0.84959684    -0.15800
C769        C  0.18327732  0.84422201  0.52487776     0.46900
H770        H  0.18851346  0.84807600  0.53844118    -0.02100
C771        C  0.17553835  0.83944818  0.49293403     0.47000
H772        H  0.17246046  0.83741066  0.47924735    -0.02100
C773        C  0.21413840  0.82092487  0.51690214    -0.15800
C774        C  0.12603305  0.81116298  0.51922666    -0.15600
C775        C  0.20357028  0.89778246  0.51717197    -0.15900
C776        C  0.21139912  0.81741053  0.49991734    -0.15900
C777        C  0.11981056  0.80621817  0.50214358    -0.15500
C778        C  0.20063167  0.89796306  0.50011311    -0.15800
C779        C  0.33883720  0.67051944  0.48189506     0.46900
H780        H  0.33789826  0.67367102  0.49555373    -0.02100
C781        C  0.34126004  0.66356726  0.45019379     0.47000
H782        H  0.34697722  0.66022879  0.43709601    -0.02100
C783        C  0.31646507  0.61141226  0.47550677    -0.15800
C784        C  0.30452263  0.69153423  0.47230578    -0.15600
C785        C  0.39719429  0.70348061  0.47441432    -0.15900
C786        C  0.31891718  0.61067065  0.45848543    -0.15900
C787        C  0.30515909  0.68490919  0.45494648    -0.15500
C788        C  0.39502949  0.69900280  0.45753487    -0.15800
Zn789      Zn  0.30853561  0.59877264  0.60114699     1.49700
Zn790      Zn  0.29560880  0.69956691  0.60073103     1.49400
Zn791      Zn  0.40905736  0.71326990  0.60032508     1.49100
Zn792      Zn  0.33562767  0.66728356  0.56947979     1.49500
O793        O  0.33716330  0.66963588  0.59309554    -1.82700
O794        O  0.25148341  0.58411022  0.61719459    -0.73300
O795        O  0.33733110  0.75499767  0.61682937    -0.73100
O796        O  0.42452395  0.67441984  0.61755280    -0.72700
O797        O  0.23568763  0.64973824  0.61509182    -0.73300
O798        O  0.35873890  0.59251252  0.61614644    -0.72900
O799        O  0.41980836  0.77540446  0.61330837    -0.73500
O800        O  0.40505730  0.70205646  0.55977564    -0.72900
O801        O  0.27434423  0.73018987  0.58205628    -0.73700
O802        O  0.45921510  0.73579807  0.58110721    -0.73100
O803        O  0.30185866  0.70359655  0.56050496    -0.73500
O804        O  0.30059664  0.59644678  0.56049127    -0.73400
O805        O  0.28336846  0.54538772  0.58253353    -0.73200
C806        C  0.22799835  0.60778178  0.62202969     0.78600
C807        C  0.38521708  0.78112850  0.62080068     0.79100
C808        C  0.40051711  0.62762693  0.62291494     0.78000
C809        C  0.45068722  0.72805097  0.56561628     0.78400
C810        C  0.28042184  0.72756335  0.56655301     0.79500
C811        C  0.28254334  0.55157448  0.56691083     0.78600
Zn812      Zn  0.00084596  0.00105513  0.68700511     1.49700
Zn813      Zn  0.46657191  0.53590160  0.71736102     1.49400
Zn814      Zn  0.46251841  0.92685181  0.71641539     1.49100
Zn815      Zn  0.07312272  0.53398134  0.71734182     1.49500
O816        O  0.99963888  0.99944077  0.70998815    -1.82700
O817        O  0.49966153  0.55978414  0.67902637    -0.73300
O818        O  0.40150439  0.98974228  0.72987592    -0.73100
O819        O  0.43436256  0.88015476  0.69608499    -0.72700
O820        O  0.44841908  0.56689082  0.69747977    -0.73300
O821        O  0.44120437  0.93985516  0.67808931    -0.72900
O822        O  0.40462131  0.91616428  0.73129453    -0.73500
O823        O  0.08044037  0.98547245  0.73070926    -0.72900
O824        O  0.01342599  0.59310462  0.73234964    -0.73700
O825        O  0.00595755  0.90909674  0.73003800    -0.73100
O826        O  0.08972417  0.59486529  0.73158251    -0.73500
O827        O  0.12017628  0.55518987  0.69679155    -0.73400
O828        O  0.06030055  0.50216946  0.67894321    -0.73200
C829        C  0.46876806  0.57568441  0.68303736     0.78600
C830        C  0.38506208  0.94404284  0.73561797     0.79100
C831        C  0.42625766  0.89286481  0.68174735     0.78000
C832        C  0.05202455  0.93840549  0.73558798     0.78400
C833        C  0.06042638  0.61144709  0.73708001     0.79500
C834        C  0.10730344  0.53511381  0.68236572     0.78600
C835        C  0.32759045  0.66926727  0.16018287     0.46900
H836        H  0.32844413  0.67326596  0.14652196    -0.02100
C837        C  0.32639464  0.66047202  0.19199294     0.47000
H838        H  0.32443072  0.65416778  0.20537897    -0.02100
C839        C  0.26942675  0.63292234  0.16754823    -0.15800
C840        C  0.36150061  0.64393537  0.16636261    -0.15600
C841        C  0.35103975  0.72458120  0.16991542    -0.15900
C842        C  0.27146698  0.63038144  0.18464247    -0.15900
C843        C  0.36078567  0.64197064  0.18329819    -0.15500
C844        C  0.34726934  0.71751190  0.18718342    -0.15800
C845        C  0.99361091  0.49995254  0.14608068     0.46900
H846        H  0.99399137  0.50120176  0.15980526    -0.02100
C847        C  0.99222926  0.49670939  0.11404371     0.47000
H848        H  0.99136199  0.49528762  0.10030895    -0.02100
C849        C  0.47654687  0.93994905  0.14039442    -0.15800
C850        C  0.45918711  0.52310078  0.13757014    -0.15600
C851        C  0.05116002  0.53283244  0.13796929    -0.15900
C852        C  0.47577485  0.93757796  0.12329771    -0.15900
C853        C  0.46017562  0.52035129  0.12050416    -0.15500
C854        C  0.04798578  0.52960216  0.12083431    -0.15800
Zn855      Zn  0.13743870  0.87512090  0.93253692     1.49700
Zn856      Zn  0.23276127  0.85467074  0.93297464     1.49400
Zn857      Zn  0.11521064  0.75763274  0.93379813     1.49100
Zn858      Zn  0.16237545  0.82694231  0.90215406     1.49500
O859        O  0.16172465  0.82827660  0.92570389    -1.82700
O860        O  0.18935911  0.93053272  0.94701236    -0.73300
O861        O  0.23357392  0.80518647  0.94908539    -0.73100
O862        O  0.06192089  0.75812861  0.94895680    -0.72700
O863        O  0.25770516  0.91880777  0.94694817    -0.73300
O864        O  0.07778145  0.83995769  0.94820042    -0.72900
O865        O  0.15371726  0.73562394  0.94923474    -0.73500
O866        O  0.11951472  0.75862383  0.89345036    -0.72900
O867        O  0.28242724  0.86777405  0.91406869    -0.73700
O868        O  0.08322415  0.70550301  0.91497942    -0.73100
O869        O  0.23015180  0.85065027  0.89246536    -0.73500
O870        O  0.13680929  0.86842884  0.89218162    -0.73400
O871        O  0.11795382  0.90433356  0.91323757    -0.73200
C872        C  0.23388769  0.94138052  0.95249801     0.78600
C873        C  0.20001169  0.76092409  0.95492130     0.79100
C874        C  0.05417620  0.79416473  0.95427579     0.78000
C875        C  0.09072467  0.71372014  0.89943493     0.78400
C876        C  0.27476145  0.86580919  0.89850194     0.79500
C877        C  0.11970533  0.89664561  0.89781056     0.78600
Zn878      Zn  0.36877661  0.63576005  0.03641778     1.49700
Zn879      Zn  0.36075267  0.74048130  0.03777982     1.49400
Zn880      Zn  0.25654682  0.62660334  0.03711457     1.49100
Zn881      Zn  0.32808605  0.66521158  0.06774507     1.49500
O882        O  0.32877749  0.66719261  0.04430846    -1.82700
O883        O  0.42556526  0.68560095  0.02117085    -0.73300
O884        O  0.31148576  0.75045754  0.02316407    -0.73100
O885        O  0.24605984  0.56896210  0.02197300    -0.72700
O886        O  0.41844834  0.75705188  0.02176966    -0.73300
O887        O  0.32528503  0.57832524  0.02056354    -0.72900
O888        O  0.24198996  0.67029348  0.02180604    -0.73500
O889        O  0.26000448  0.63041385  0.07737675    -0.72900
O890        O  0.38752686  0.79048299  0.05747098    -0.73700
O891        O  0.20525225  0.59873281  0.05621871    -0.73100
O892        O  0.36288842  0.73240588  0.07784065    -0.73500
O893        O  0.36143762  0.63015320  0.07667725    -0.73400
O894        O  0.39499795  0.60936962  0.05541510    -0.73200
C895        C  0.43720904  0.73046492  0.01560335     0.78600
C896        C  0.26792183  0.71730590  0.01673632     0.79100
C897        C  0.27837198  0.55782374  0.01546379     0.78000
C898        C  0.21433839  0.60474673  0.07171864     0.78400
C899        C  0.38450849  0.77895538  0.07282072     0.79500
C900        C  0.38718715  0.61050357  0.07092429     0.78600
C901        C  0.25028050  0.73084998  0.00132805    -0.03900
C902        C  0.28532274  0.75138992  0.98774229    -0.01000
C903        C  0.26712051  0.75511282  0.97202585     0.04000
C904        C  0.21462597  0.74230041  0.96991430    -0.03900
C905        C  0.17930367  0.72120778  0.98342856    -0.01000
C906        C  0.19697359  0.71464757  0.99895555     0.04000
C907        C  0.34033674  0.76819304  0.98960994     0.38600
C908        C  0.12510267  0.70799708  0.98172929     0.38600
C909        C  0.16016906  0.69232166  0.01257210     0.37000
C910        C  0.30247923  0.77128531  0.95789637     0.37000
N911        N  0.12991245  0.67418672  0.02319368    -0.37800
N912        N  0.33061031  0.78390326  0.94665212    -0.37800
N913        N  0.08184043  0.69732897  0.98049153    -0.37200
N914        N  0.38459155  0.78288137  0.99067738    -0.37200
C915        C  0.25421008  0.97563785  0.96728045    -0.03900
C916        C  0.27393145  0.96024012  0.98085075    -0.01000
C917        C  0.28121267  0.48970794  0.99764579     0.04000
C918        C  0.26322194  0.52515427  0.00028481    -0.03900
C919        C  0.23699947  0.53500143  0.98729946    -0.01000
C920        C  0.24414616  0.01717934  0.96932873     0.04000
C921        C  0.28480933  0.91774476  0.97922756     0.38600
C922        C  0.21865696  0.57187818  0.98947117     0.38600
C923        C  0.22457724  0.03416298  0.95556731     0.37000
C924        C  0.30793740  0.47901772  0.01081412     0.37000
N925        N  0.20852047  0.04749621  0.94469703    -0.37800
N926        N  0.32948518  0.47062188  0.02125726    -0.37800
N927        N  0.20341271  0.60079298  0.99102450    -0.37200
N928        N  0.29390292  0.88414778  0.97802209    -0.37200
C929        C  0.02102869  0.78338075  0.96912398    -0.03900
C930        C  0.47168600  0.73483101  0.97027086    -0.01000
C931        C  0.44641774  0.71727279  0.98563070     0.04000
C932        C  0.46689995  0.74873787  0.99993653    -0.03900
C933        C  0.01439246  0.80022128  0.99849911    -0.01000
C934        C  0.04055954  0.81662098  0.98312956     0.04000
C935        C  0.44815578  0.70451115  0.95539650     0.38600
C936        C  0.03384346  0.83448369  0.01275336     0.38600
C937        C  0.08857600  0.86681666  0.98202290     0.37000
C938        C  0.39764133  0.66783854  0.98635926     0.37000
N939        N  0.12671956  0.90699803  0.98126508    -0.37800
N940        N  0.35869129  0.62840881  0.98649940    -0.37800
N941        N  0.04936334  0.86213762  0.02405125    -0.37200
N942        N  0.42905415  0.68075031  0.94351078    -0.37200
C943        C  0.45323792  0.88924884  0.11259925    -0.03900
C944        C  0.48462287  0.88498931  0.09998822    -0.01000
C945        C  0.46172052  0.85139616  0.08641076     0.04000
C946        C  0.40747915  0.81908853  0.08569753    -0.03900
C947        C  0.37618931  0.81775332  0.09905920    -0.01000
C948        C  0.39862474  0.85318408  0.11233284     0.04000
C949        C  0.54063214  0.90982810  0.10113475     0.38600
C950        C  0.31980554  0.78286221  0.09831479     0.38600
C951        C  0.36326000  0.85649194  0.12396884     0.37000
C952        C  0.49437253  0.84749836  0.07360848     0.37000
N953        N  0.33177881  0.85718473  0.13228650    -0.37800
N954        N  0.52049115  0.84420769  0.06355284    -0.37800
N955        N  0.27498089  0.75522221  0.09747761    -0.37200
N956        N  0.08344689  0.92180444  0.10070119    -0.37200
C957        C  0.40682792  0.58807318  0.08314883    -0.03900
C958        C  0.43766126  0.61911891  0.09639747    -0.01000
C959        C  0.45382812  0.59711711  0.10891322     0.04000
C960        C  0.43761129  0.54298231  0.10856357    -0.03900
C961        C  0.40433652  0.51202810  0.09543311    -0.01000
C962        C  0.38861288  0.53446017  0.08299512     0.04000
C963        C  0.45619810  0.67493415  0.09642125     0.38600
C964        C  0.38770417  0.95280890  0.09573923     0.38600
C965        C  0.35100000  0.50170058  0.07046316     0.37000
C966        C  0.99417418  0.63272624  0.12049838     0.37000
N967        N  0.34248495  0.97512720  0.05861377    -0.37800
N968        N  0.02723443  0.66377696  0.12868413    -0.37800
N969        N  0.36306051  0.90855556  0.09316939    -0.37200
N970        N  0.96899649  0.71868390  0.09713813    -0.37200
C971        C  0.17172052  0.58396041  0.08387056    -0.03900
C972        C  0.17356641  0.55651486  0.09786637    -0.01000
C973        C  0.13463215  0.54001143  0.11024191     0.04000
C974        C  0.09340616  0.55150353  0.10877430    -0.03900
C975        C  0.09357379  0.58052324  0.09462306    -0.01000
C976        C  0.13277732  0.59705213  0.08249307     0.04000
C977        C  0.21369639  0.54191592  0.09887712     0.38600
C978        C  0.05495895  0.59543685  0.09163266     0.38600
C979        C  0.13490791  0.63070272  0.06895652     0.37000
C980        C  0.13365292  0.50419970  0.12267529     0.37000
N981        N  0.13665628  0.65804497  0.05841686    -0.37800
N982        N  0.13546240  0.47542940  0.13199597    -0.37800
N983        N  0.02919320  0.61117081  0.08643368    -0.37200
N984        N  0.24566288  0.53032138  0.09946404    -0.37200
C985        C  0.38893065  0.61839054  0.15640092    -0.03900
C986        C  0.35967798  0.57319750  0.14655104    -0.01000
C987        C  0.38001892  0.53977044  0.14174315     0.04000
C988        C  0.43154971  0.55054025  0.14623903    -0.03900
C989        C  0.46041363  0.59551465  0.15617421    -0.01000
C990        C  0.44147510  0.63068272  0.15983932     0.04000
C991        C  0.30763234  0.56036346  0.14147931     0.38600
C992        C  0.01213269  0.60840776  0.16213414     0.38600
C993        C  0.47991497  0.68336486  0.16448584     0.37000
C994        C  0.35396168  0.98829174  0.13420352     0.37000
N995        N  0.51338380  0.72560404  0.16697825    -0.37800
N996        N  0.32487268  0.94968806  0.12768553    -0.37800
N997        N  0.05362735  0.61951722  0.16657902    -0.37200
N998        N  0.26620512  0.55030030  0.13729527    -0.37200
C999        C  0.38263269  0.78003258  0.16191208    -0.03900
C1000       C  0.42866357  0.79534160  0.15249523    -0.01000
C1001       C  0.46327221  0.84874994  0.14788680     0.04000
C1002       C  0.45079775  0.88869183  0.15084436    -0.03900
C1003       C  0.40467871  0.87344304  0.16018455    -0.01000
C1004       C  0.36936226  0.81958069  0.16435467     0.04000
C1005       C  0.43662496  0.75566449  0.14494039     0.38600
C1006       C  0.39012998  0.91219003  0.16401490     0.38600
C1007       C  0.31477836  0.80351932  0.16629020     0.37000
C1008       C  0.51311276  0.86228224  0.14050518     0.37000
N1009       N  0.27126038  0.79243646  0.16653677    -0.37800
N1010       N  0.05136190  0.86956358  0.13512933    -0.37800
N1011       N  0.37782152  0.94258599  0.16717311    -0.37200
N1012       N  0.44267825  0.72542871  0.13769572    -0.37200
C1013       C  0.10574622  0.56148703  0.14693545    -0.03900
C1014       C  0.12017630  0.53498312  0.15858336    -0.01000
C1015       C  0.17387284  0.55465833  0.16324074     0.04000
C1016       C  0.21540904  0.60513416  0.15820623    -0.03900
C1017       C  0.20115573  0.63175719  0.14653485    -0.01000
C1018       C  0.14754666  0.61144119  0.14149526     0.04000
C1019       C  0.08019120  0.48518485  0.16520880     0.38600
C1020       C  0.24125574  0.68203831  0.14026831     0.38600
C1021       C  0.13570714  0.64421865  0.13118546     0.37000
C1022       C  0.18644963  0.52024216  0.17236379     0.37000
N1023       N  0.12801133  0.67146330  0.12284736    -0.37800
N1024       N  0.19528016  0.49167204  0.17952666    -0.37800
N1025       N  0.27306582  0.72207968  0.13509330    -0.37200
N1026       N  0.04896213  0.44557360  0.17081323    -0.37200
C1027       C  0.41859499  0.61540340  0.63854966    -0.03900
C1028       C  0.47253325  0.63721784  0.64173941    -0.01000
C1029       C  0.48948002  0.62959219  0.65724567     0.04000
C1030       C  0.45260236  0.59860166  0.66957449    -0.03900
C1031       C  0.39879268  0.57861859  0.66666039    -0.01000
C1032       C  0.38182629  0.58664865  0.65122159     0.04000
C1033       C  0.51069000  0.66486948  0.62875658     0.38600
C1034       C  0.36023231  0.54691480  0.67913984     0.38600
C1035       C  0.32606805  0.56436587  0.64853486     0.37000
C1036       C  0.54517390  0.65278865  0.66036082     0.37000
N1037       N  0.28139636  0.54556096  0.64666942    -0.37800
N1038       N  0.08950294  0.68186410  0.66418591    -0.37800
N1039       N  0.32938750  0.52160987  0.68903975    -0.37200
N1040       N  0.54132911  0.68663699  0.61843548    -0.37200
C1041       C  0.39874609  0.81317981  0.63597139    -0.03900
C1042       C  0.37244495  0.84069763  0.63965250    -0.01000
C1043       C  0.37524601  0.86053938  0.65566234     0.04000
C1044       C  0.40663113  0.85549266  0.66789171    -0.03900
C1045       C  0.43194296  0.82698302  0.66435350    -0.01000
C1046       C  0.42916633  0.80707321  0.64836095     0.04000
C1047       C  0.34446480  0.85072166  0.62673098     0.38600
C1048       C  0.46251727  0.81950764  0.67699269     0.38600
C1049       C  0.45845904  0.78089724  0.64480356     0.37000
C1050       C  0.34548534  0.88597604  0.65961310     0.37000
N1051       N  0.48287788  0.76105580  0.64214112    -0.37800
N1052       N  0.82294296  0.90983566  0.66067391    -0.37800
N1053       N  0.48650195  0.81316163  0.68710004    -0.37200
N1054       N  0.32268931  0.85912283  0.61635953    -0.37200
C1055       C  0.19597884  0.58902882  0.63738780    -0.03900
C1056       C  0.20266760  0.62525686  0.64999306    -0.01000
C1057       C  0.17629113  0.60757161  0.66525132     0.04000
C1058       C  0.14484673  0.55344510  0.66839345    -0.03900
C1059       C  0.14058740  0.51725311  0.65620123    -0.01000
C1060       C  0.16496865  0.53488306  0.64066792     0.04000
C1061       C  0.23823721  0.68092329  0.64772584     0.38600
C1062       C  0.11071262  0.46149282  0.65961598     0.38600
C1063       C  0.15723078  0.49697246  0.62798536     0.37000
C1064       C  0.17956516  0.64547994  0.67732123     0.37000
N1065       N  0.15101058  0.46660245  0.61792039    -0.37800
N1066       N  0.18207579  0.67581270  0.68685676    -0.37800
N1067       N  0.08691631  0.41707098  0.66234371    -0.37200
N1068       N  0.26654597  0.72542777  0.64626970    -0.37200
C1069       C  0.22698621  0.94411333  0.52862633    -0.03900
C1070       C  0.28117524  0.98166822  0.52805152    -0.01000
C1071       C  0.30476619  0.01755898  0.54109221     0.04000
C1072       C  0.25804455  0.50598687  0.55571507    -0.03900
C1073       C  0.21977591  0.50125801  0.54439579    -0.01000
C1074       C  0.19679467  0.94657130  0.54200686     0.04000
C1075       C  0.31421232  0.98389043  0.51450430     0.38600
C1076       C  0.20392650  0.54017560  0.54381133     0.38600
C1077       C  0.14092976  0.91344075  0.54335371     0.37000
C1078       C  0.36112389  0.05261637  0.54126007     0.37000
N1079       N  0.09709481  0.89303396  0.54681878    -0.37800
N1080       N  0.40604410  0.08020101  0.54146281    -0.37800
N1081       N  0.19101790  0.57102743  0.54321804    -0.37200
N1082       N  0.34370788  0.98825316  0.50432895    -0.37200
C1083       C  0.08186620  0.79172070  0.53177291    -0.03900
C1084       C  0.03876084  0.79996548  0.52933838    -0.01000
C1085       C  0.99578233  0.77782096  0.54025731     0.04000
C1086       C  0.49454965  0.74912056  0.55387500    -0.03900
C1087       C  0.03822861  0.74145501  0.55695014    -0.01000
C1088       C  0.08216836  0.76508190  0.54650214     0.04000
C1089       C  0.04134077  0.83829179  0.51757504     0.38600
C1090       C  0.03578512  0.70748025  0.57040902     0.38600
C1091       C  0.12834621  0.76624418  0.55275162     0.37000
C1092       C  0.45237423  0.78884446  0.53754963     0.37000
N1093       N  0.16357465  0.76872058  0.55975052    -0.37800
N1094       N  0.41852190  0.79722303  0.53553682    -0.37800
N1095       N  0.52999739  0.67753913  0.58041221    -0.37200
N1096       N  0.04098437  0.86924647  0.50889470    -0.37200
C1097       C  0.26293429  0.75274000  0.55472402    -0.03900
C1098       C  0.21903541  0.72130016  0.54503868    -0.01000
C1099       C  0.20789196  0.74239626  0.53110567     0.04000
C1100       C  0.23706736  0.79686151  0.52790066    -0.03900
C1101       C  0.28114462  0.82845610  0.53803219    -0.01000
C1102       C  0.29483625  0.80595373  0.55105748     0.04000
C1103       C  0.18078432  0.66965789  0.55105411     0.38600
C1104       C  0.31467099  0.88376352  0.53528865     0.38600
C1105       C  0.34154714  0.83762065  0.56087723     0.37000
C1106       C  0.16420507  0.70715245  0.52098193     0.37000
N1107       N  0.37873489  0.86292894  0.56865811    -0.37800
N1108       N  0.12977873  0.67528823  0.51345310    -0.37800
N1109       N  0.34614348  0.92755035  0.53451977    -0.37200
N1110       N  0.14896332  0.62983766  0.55635911    -0.37200
C1111       C  0.22370693  0.95076491  0.49055838    -0.03900
C1112       C  0.21391806  0.99124379  0.49581110    -0.01000
C1113       C  0.24639293  0.54198419  0.49523267     0.04000
C1114       C  0.29120286  0.55860427  0.48525658    -0.03900
C1115       C  0.30321519  0.51902002  0.48114475    -0.01000
C1116       C  0.26440328  0.96564350  0.47882566     0.04000
C1117       C  0.16747433  0.97794193  0.50537596     0.38600
C1118       C  0.35498219  0.53406248  0.47521732     0.38600
C1119       C  0.27509971  0.92640482  0.47228635     0.37000
C1120       C  0.23784708  0.58120750  0.50283331     0.37000
N1121       N  0.28411259  0.89580940  0.46669826    -0.37800
N1122       N  0.23300541  0.61306989  0.50951288    -0.37800
N1123       N  0.39668756  0.54411773  0.47134909    -0.37200
N1124       N  0.13073325  0.96996180  0.51281609    -0.37200
C1125       C  0.45195137  0.73211602  0.48321183    -0.03900
C1126       C  0.46675513  0.70593893  0.49480880    -0.01000
C1127       C  0.02197684  0.72732179  0.50000618     0.04000
C1128       C  0.06391948  0.77673552  0.49399899    -0.03900
C1129       C  0.04857691  0.80324784  0.48270198    -0.01000
C1130       C  0.49363743  0.78165003  0.47748091     0.04000
C1131       C  0.42660519  0.65644463  0.50162288     0.38600
C1132       C  0.08791095  0.85344482  0.47604931     0.38600
C1133       C  0.48149013  0.81636980  0.46838380     0.37000
C1134       C  0.03244241  0.69580032  0.51133111     0.37000
N1135       N  0.47412553  0.84669682  0.46171085    -0.37800
N1136       N  0.03644076  0.66879208  0.52085791    -0.37800
N1137       N  0.11835280  0.89366998  0.47060619    -0.37200
N1138       N  0.39526071  0.61708040  0.50734216    -0.37200
C1139       C  0.28046300  0.72281935  0.48063442    -0.03900
C1140       C  0.31252740  0.77432377  0.48677814    -0.01000
C1141       C  0.29135535  0.80691222  0.49153086     0.04000
C1142       C  0.23676597  0.78952459  0.49051948    -0.03900
C1143       C  0.20529041  0.73866377  0.48415572    -0.01000
C1144       C  0.22565462  0.70428008  0.48151919     0.04000
C1145       C  0.36668767  0.79212521  0.49050474     0.38600
C1146       C  0.15089006  0.72065313  0.48053417     0.38600
C1147       C  0.18878115  0.64909978  0.48286610     0.37000
C1148       C  0.32762473  0.86005651  0.49638589     0.37000
N1149       N  0.15584221  0.60630235  0.48489715    -0.37800
N1150       N  0.35936475  0.90239232  0.49958302    -0.37800
N1151       N  0.10756426  0.70604767  0.47736220    -0.37200
N1152       N  0.40932181  0.80731855  0.49467034    -0.37200
C1153       C  0.31893627  0.88813201  0.88690154    -0.03900
C1154       C  0.35751408  0.94047840  0.88898107    -0.01000
C1155       C  0.39425190  0.96691764  0.87639530     0.04000
C1156       C  0.39538626  0.94051429  0.86180714    -0.03900
C1157       C  0.35627065  0.88688695  0.85998331    -0.01000
C1158       C  0.31751563  0.86145985  0.87232057     0.04000
C1159       C  0.35729880  0.96854375  0.90380068     0.38600
C1160       C  0.35914234  0.85478878  0.84697843     0.38600
C1161       C  0.27796300  0.80659336  0.87058490     0.37000
C1162       C  0.42803844  0.02224870  0.87888592     0.37000
N1163       N  0.24654065  0.76283209  0.86934131    -0.37800
N1164       N  0.45025499  0.06533133  0.88309931    -0.37800
N1165       N  0.35959078  0.82652715  0.83719031    -0.37200
N1166       N  0.35687086  0.99063338  0.91555758    -0.37200
C1167       C  0.09670847  0.91610195  0.88586165    -0.03900
C1168       C  0.04324001  0.89854048  0.88709843    -0.01000
C1169       C  0.01810944  0.90943805  0.87434273     0.04000
C1170       C  0.04713809  0.94234995  0.86086433    -0.03900
C1171       C  0.10162928  0.96010384  0.85984433    -0.01000
C1172       C  0.12551696  0.94470792  0.87192928     0.04000
C1173       C  0.01325294  0.86650283  0.90120175     0.38600
C1174       C  0.13563870  0.00047353  0.84829306     0.38600
C1175       C  0.18088142  0.96165085  0.87076164     0.37000
C1176       C  0.96184007  0.88259736  0.87522337     0.37000
N1177       N  0.22493649  0.97493384  0.86998365    -0.37800
N1178       N  0.91761772  0.85614099  0.87774574    -0.37800
N1179       N  0.16559197  0.03327462  0.83970870    -0.37200
N1180       N  0.98955250  0.84113405  0.91241047    -0.37200
C1181       C  0.05022408  0.59847533  0.86161126    -0.03900
C1182       C  0.03195153  0.63473142  0.86069141    -0.01000
C1183       C  0.04385497  0.67158943  0.87343794     0.04000
C1184       C  0.07122753  0.67078453  0.88757259    -0.03900
C1185       C  0.09071978  0.63651601  0.88842808    -0.01000
C1186       C  0.08142981  0.60154344  0.87542234     0.04000
C1187       C  0.99442932  0.63030972  0.84839261     0.38600
C1188       C  0.12405835  0.64009111  0.90224528     0.38600
C1189       C  0.10784574  0.57194526  0.87646546     0.37000
C1190       C  0.02472981  0.70823221  0.87262753     0.37000
N1191       N  0.13321969  0.55331608  0.87919492    -0.37800
N1192       N  0.00948098  0.73737052  0.87207860    -0.37800
N1193       N  0.15092686  0.64333657  0.91313714    -0.37200
N1194       N  0.96397824  0.62947513  0.83923598    -0.37200
C1195       C  0.26475373  0.87773664  0.77317739    -0.03900
C1196       C  0.26358302  0.84871842  0.75892558    -0.01000
C1197       C  0.30093993  0.87196007  0.74624086     0.04000
C1198       C  0.34307294  0.92274950  0.74812437    -0.03900
C1199       C  0.34670422  0.95162008  0.76240788    -0.01000
C1200       C  0.30688662  0.93020188  0.77456338     0.04000
C1201       C  0.22633343  0.79404601  0.75672160     0.38600
C1202       C  0.39199512  0.50682915  0.76572634     0.38600
C1203       C  0.30591903  0.96571395  0.78670145     0.37000
C1204       C  0.29531888  0.84374510  0.73087277     0.37000
N1205       N  0.30629952  0.99620121  0.79572978    -0.37800
N1206       N  0.29071635  0.82145935  0.71865190    -0.37800
N1207       N  0.42623056  0.54948868  0.76675340    -0.37200
N1208       N  0.20137440  0.75105216  0.75259441    -0.37200
C1209       C  0.07340030  0.91876937  0.74854384    -0.03900
C1210       C  0.12651773  0.93355079  0.74799705    -0.01000
C1211       C  0.14874413  0.91902686  0.76082482     0.04000
C1212       C  0.11776728  0.88652426  0.77411255    -0.03900
C1213       C  0.06412762  0.87241556  0.77472041    -0.01000
C1214       C  0.04252667  0.88935862  0.76217883     0.04000
C1215       C  0.15896016  0.96378011  0.73398614     0.38600
C1216       C  0.02844204  0.83435072  0.78659873     0.38600
C1217       C  0.48877675  0.87363277  0.76311605     0.37000
C1218       C  0.20460660  0.94142179  0.75998911     0.37000
N1219       N  0.44492464  0.86130840  0.76363123    -0.37800
N1220       N  0.24884157  0.96466817  0.75708665    -0.37800
N1221       N  0.99775614  0.80320165  0.79545546    -0.37200
N1222       N  0.17797946  0.47026590  0.72073462    -0.37200
C1223       C  0.08033872  0.65280067  0.74957388    -0.03900
C1224       C  0.06949451  0.69338061  0.74774218    -0.01000
C1225       C  0.08038739  0.72872709  0.76065500     0.04000
C1226       C  0.11010862  0.72949627  0.77455904    -0.03900
C1227       C  0.12410306  0.69000209  0.77577736    -0.01000
C1228       C  0.10640538  0.65007927  0.76379008     0.04000
C1229       C  0.04879494  0.70011160  0.73213348     0.38600
C1230       C  0.16360396  0.69433776  0.78727983     0.38600
C1231       C  0.11771326  0.60789091  0.76556710     0.37000
C1232       C  0.05792078  0.76183956  0.75913387     0.37000
N1233       N  0.12680704  0.57426328  0.76668324    -0.37800
N1234       N  0.03554008  0.78321846  0.75580441    -0.37800
N1235       N  0.19576336  0.69606730  0.79584398    -0.37200
N1236       N  0.03291187  0.70571282  0.71967350    -0.37200
C1237       C  0.11407770  0.89198684  0.81211413    -0.03900
C1238       C  0.07104262  0.86403132  0.82296420    -0.01000
C1239       C  0.03786619  0.88431883  0.82780790     0.04000
C1240       C  0.04880398  0.93576500  0.82328176    -0.03900
C1241       C  0.09242505  0.96407136  0.81266037    -0.01000
C1242       C  0.12528406  0.94349969  0.80765608     0.04000
C1243       C  0.05877776  0.81251753  0.82858995     0.38600
C1244       C  0.10942348  0.51663659  0.80741315     0.38600
C1245       C  0.17318165  0.97768205  0.79880654     0.37000
C1246       C  0.99049144  0.84987702  0.83684902     0.37000
N1247       N  0.21138843  0.00636888  0.79191634    -0.37800
N1248       N  0.45293860  0.82040359  0.84382182    -0.37800
N1249       N  0.12038810  0.55842354  0.80332386    -0.37200
N1250       N  0.04862965  0.77144061  0.83323369    -0.37200
C1251       C  0.27653145  0.88126845  0.81154683    -0.03900
C1252       C  0.29093223  0.92170387  0.82332738    -0.01000
C1253       C  0.34396213  0.95305383  0.82901886     0.04000
C1254       C  0.38521134  0.94426480  0.82369417    -0.03900
C1255       C  0.37096922  0.90442445  0.81169924    -0.01000
C1256       C  0.31757828  0.87193059  0.80643749     0.04000
C1257       C  0.25164021  0.93382610  0.82889432     0.38600
C1258       C  0.41086805  0.89400405  0.80555342     0.38600
C1259       C  0.30502982  0.82683981  0.79630055     0.37000
C1260       C  0.35559909  0.99604919  0.84003890     0.37000
N1261       N  0.29650866  0.79126320  0.78818147    -0.37800
N1262       N  0.36254595  0.02947479  0.84895297    -0.37800
N1263       N  0.44266579  0.88551538  0.80069142    -0.37200
N1264       N  0.22054325  0.94393316  0.83330670    -0.37200
C1265       C  0.06006574  0.60992090  0.82376030    -0.03900
C1266       C  0.03231140  0.62481670  0.81282695    -0.01000
C1267       C  0.05262036  0.67845069  0.80786831     0.04000
C1268       C  0.10389764  0.71942878  0.81238811    -0.03900
C1269       C  0.13166693  0.70453688  0.82332219    -0.01000
C1270       C  0.11109678  0.65099893  0.82842732     0.04000
C1271       C  0.48025886  0.58421961  0.80725894     0.38600
C1272       C  0.18373050  0.74387233  0.82846257     0.38600
C1273       C  0.14492128  0.63818631  0.83772984     0.37000
C1274       C  0.01861870  0.69145947  0.79873096     0.37000
N1275       N  0.17350300  0.62973821  0.84502121    -0.37800
N1276       N  0.99026201  0.70042478  0.79151539    -0.37800
N1277       N  0.22552164  0.77497505  0.83249606    -0.37200
N1278       N  0.43845231  0.55275201  0.80337511    -0.37200
C1279       C  0.40706051  0.84568989  0.22350497    -0.03900
C1280       C  0.35995848  0.83149587  0.21489842    -0.01000
C1281       C  0.33791744  0.78774595  0.20403887     0.04000
C1282       C  0.36383556  0.75920931  0.20092495    -0.03900
C1283       C  0.39854796  0.76379932  0.21380914    -0.01000
C1284       C  0.42673900  0.81093184  0.22251181     0.04000
C1285       C  0.33131399  0.85866377  0.21802789     0.38600
C1286       C  0.38863534  0.71830859  0.22341190     0.38600
C1287       C  0.47112274  0.81832124  0.23233082     0.37000
C1288       C  0.28285832  0.76474947  0.20077053     0.37000
N1289       N  0.50650745  0.82393716  0.24006731    -0.37800
N1290       N  0.23879707  0.75101044  0.19994776    -0.37800
N1291       N  0.38006702  0.68326248  0.23189467    -0.37200
N1292       N  0.30761588  0.87934970  0.22059940    -0.37200
C1293       C  0.43356633  0.58990533  0.21843634    -0.03900
C1294       C  0.40126361  0.55502099  0.20599487    -0.01000
C1295       C  0.37764089  0.57132803  0.19413598     0.04000
C1296       C  0.39148466  0.62438525  0.19337675    -0.03900
C1297       C  0.43422809  0.66106740  0.20291602    -0.01000
C1298       C  0.45259805  0.64394222  0.21622789     0.04000
C1299       C  0.39571130  0.50371716  0.20452745     0.38600
C1300       C  0.46065087  0.71629128  0.19880061     0.38600
C1301       C  0.48936805  0.68210549  0.22781823     0.37000
C1302       C  0.33706985  0.53249922  0.18359296     0.37000
N1303       N  0.01368783  0.71279180  0.23833405    -0.37800
N1304       N  0.30405071  0.50027182  0.17567308    -0.37800
N1305       N  0.48294764  0.76045558  0.19557964    -0.37200
N1306       N  0.39314354  0.46366602  0.20300074    -0.37200
C1307       C  0.15318193  0.57954974  0.22315614    -0.03900
C1308       C  0.19218825  0.56605577  0.22382918    -0.01000
C1309       C  0.22637034  0.57741669  0.21037752     0.04000
C1310       C  0.22619053  0.60798679  0.19674781    -0.03900
C1311       C  0.18675182  0.62211221  0.19637875    -0.01000
C1312       C  0.14904241  0.60556600  0.20910302     0.04000
C1313       C  0.19756225  0.54056170  0.23852228     0.38600
C1314       C  0.18422670  0.65480690  0.18350649     0.38600
C1315       C  0.10451314  0.61347752  0.20736870     0.37000
C1316       C  0.25947921  0.55456192  0.21088085     0.37000
N1317       N  0.06874514  0.61917365  0.20594276    -0.37800
N1318       N  0.28230470  0.53287553  0.21302588    -0.37800
N1319       N  0.17972229  0.68136681  0.17390723    -0.37200
N1320       N  0.20219861  0.52034916  0.25015106    -0.37200
C1321       C  0.06683982  0.86446401  0.33284150    -0.03900
C1322       C  0.09707271  0.87530361  0.31825969    -0.01000
C1323       C  0.08311990  0.89191072  0.30375534     0.04000
C1324       C  0.03727459  0.89548055  0.30355388    -0.03900
C1325       C  0.00330417  0.87737257  0.31759348    -0.01000
C1326       C  0.01836097  0.86222313  0.33220652     0.04000
C1327       C  0.14237575  0.86864507  0.31812067     0.38600
C1328       C  0.95353667  0.87599300  0.31734692     0.38600
C1329       C  0.98474589  0.84561066  0.34671486     0.37000
C1330       C  0.13532945  0.48129792  0.29738060     0.37000
N1331       N  0.95786002  0.83202421  0.35827193    -0.37800
N1332       N  0.16679474  0.50725901  0.28773415    -0.37800
N1333       N  0.40756926  0.81956675  0.30410276    -0.37200
N1334       N  0.20891385  0.50946962  0.33412840    -0.37200
C1335       C  0.10891169  0.68850855  0.33670042    -0.03900
C1336       C  0.14122180  0.67015972  0.33022754    -0.01000
C1337       C  0.13238391  0.64869466  0.31417127     0.04000
C1338       C  0.09177278  0.64611306  0.30424366    -0.03900
C1339       C  0.05974212  0.66475728  0.31061548    -0.01000
C1340       C  0.06721768  0.68442157  0.32687436     0.04000
C1341       C  0.18314328  0.67235779  0.34018355     0.38600
C1342       C  0.51478871  0.65700783  0.30011234     0.38600
C1343       C  0.03132433  0.70018397  0.33327626     0.37000
C1344       C  0.16555499  0.62952710  0.30783282     0.37000
N1345       N  0.00162270  0.71154818  0.33820529    -0.37800
N1346       N  0.19222159  0.61434857  0.30289686    -0.37800
N1347       N  0.48000406  0.65279750  0.29235069    -0.37200
N1348       N  0.21685846  0.67448981  0.34804495    -0.37200
C1349       C  0.34949056  0.96047541  0.30103806    -0.03900
C1350       C  0.34780368  0.99599806  0.31229560    -0.01000
C1351       C  0.32093344  0.97792064  0.32753623     0.04000
C1352       C  0.29767442  0.92429803  0.33193916    -0.03900
C1353       C  0.29662959  0.88859282  0.32001506    -0.01000
C1354       C  0.32184979  0.90660378  0.30462920     0.04000
C1355       C  0.37446549  0.05130769  0.30822577     0.38600
C1356       C  0.26787420  0.83269517  0.32308403     0.38600
C1357       C  0.32203026  0.86969314  0.29281405     0.37000
C1358       C  0.31806841  0.01485377  0.33866004     0.37000
N1359       N  0.32227201  0.84047517  0.28336042    -0.37800
N1360       N  0.31526216  0.04433805  0.34738630    -0.37800
N1361       N  0.24497627  0.78794532  0.32517182    -0.37200
N1362       N  0.39562540  0.09541057  0.30497498    -0.37200
C1363       C  0.29326242  0.56399248  0.44726458    -0.05100
C1364       C  0.23809765  0.53569878  0.44563725    -0.01000
C1365       C  0.20995627  0.99557356  0.42835023     0.04000
C1366       C  0.23901538  0.99534967  0.41459947    -0.03900
C1367       C  0.29995801  0.52694895  0.42079627    -0.01000
C1368       C  0.32358240  0.55691355  0.43500680     0.04000
C1369       C  0.20464859  0.54051663  0.45758980     0.38600
C1370       C  0.33187284  0.52353180  0.40767283     0.38600
C1371       C  0.37861755  0.57615383  0.43706271     0.37000
C1372       C  0.15463674  0.95638035  0.42949221     0.37000
N1373       N  0.42157441  0.58567748  0.43737023    -0.37800
N1374       N  0.11078524  0.92480174  0.43041406    -0.37800
N1375       N  0.35732172  0.52125108  0.39717302    -0.37200
N1376       N  0.17485629  0.54117058  0.46667256    -0.37200
C1377       C  0.01758945  0.75824354  0.42068331    -0.03900
C1378       C  0.47064848  0.76587466  0.41868502    -0.01000
C1379       C  0.43889298  0.75502832  0.43278852     0.04000
C1380       C  0.43962570  0.72244068  0.44557790    -0.03900
C1381       C  0.47401009  0.70256700  0.44427222    -0.01000
C1382       C  0.50265878  0.71040508  0.42960854     0.04000
C1383       C  0.98545544  0.81472317  0.40932242     0.38600
C1384       C  0.48014072  0.67344142  0.45764440     0.38600
C1385       C  0.05614567  0.70802144  0.43276357     0.37000
C1386       C  0.40765960  0.77997788  0.43449519     0.37000
N1387       N  0.08544091  0.69297332  0.43218153    -0.37800
N1388       N  0.38442478  0.80166037  0.43587230    -0.37800
N1389       N  0.48680756  0.64979064  0.46779872    -0.37200
N1390       N  0.98571511  0.84251022  0.39917074    -0.37200
C1391       C  0.27839029  0.69921870  0.44092043    -0.03900
C1392       C  0.28682887  0.69717900  0.42343809    -0.01000
C1393       C  0.27606276  0.72728833  0.41204918     0.04000
C1394       C  0.25172895  0.75534456  0.41755301    -0.03900
C1395       C  0.23651665  0.74917927  0.43460820    -0.01000
C1396       C  0.23947349  0.71138604  0.44435341     0.04000
C1397       C  0.29217885  0.65555472  0.41612239     0.38600
C1398       C  0.21020271  0.77437276  0.44195655     0.38600
C1399       C  0.18859422  0.66571128  0.44705009     0.37000
C1400       C  0.28805414  0.72668343  0.39461655     0.37000
N1401       N  0.14753584  0.62884675  0.44830206    -0.37800
N1402       N  0.29748933  0.72556301  0.38075979    -0.37800
N1403       N  0.18912590  0.79448514  0.44781603    -0.37200
N1404       N  0.29593645  0.62304500  0.40945467    -0.37200
Zn1405     Zn  0.59803025  0.30645842  0.37048559     1.49700
Zn1406     Zn  0.71470816  0.32541987  0.36972071     1.49400
Zn1407     Zn  0.69379944  0.42213612  0.37150381     1.49100
Zn1408     Zn  0.67218021  0.34690315  0.40153464     1.49500
O1409       O  0.66959396  0.35016225  0.37806612    -1.82700
O1410       O  0.59169834  0.24931595  0.35547739    -0.73300
O1411       O  0.77204790  0.38053407  0.35587823    -0.73100
O1412       O  0.63872986  0.43032107  0.35943511    -0.72700
O1413       O  0.67512503  0.27136180  0.35265701    -0.73300
O1414       O  0.57985335  0.34721606  0.35498159    -0.72900
O1415       O  0.74728867  0.44016294  0.35377649    -0.73500
O1416       O  0.70843862  0.41529526  0.41129357    -0.72900
O1417       O  0.74078020  0.29538367  0.38782305    -0.73700
O1418       O  0.72373118  0.47211318  0.39097509    -0.73100
O1419       O  0.70616692  0.30937307  0.41010409    -0.73500
O1420       O  0.60275809  0.31381593  0.41087787    -0.73400
O1421       O  0.54714215  0.28113798  0.38975650    -0.73200
C1422       C  0.62763285  0.24526357  0.34810545     0.78600
C1423       C  0.77458371  0.42046061  0.34897363     0.79100
C1424       C  0.59896776  0.39542664  0.35171525     0.78000
C1425       C  0.72593829  0.46144859  0.40615447     0.78400
C1426       C  0.73238397  0.29125151  0.40343173     0.79500
C1427       C  0.55683592  0.28911281  0.40518357     0.78600
Zn1428     Zn  0.52863478  0.46730516  0.25478159     1.49700
Zn1429     Zn  0.50138818  0.00843922  0.28439518     1.49400
Zn1430     Zn  0.54583151  0.08201302  0.25446547     1.49100
Zn1431     Zn  0.92521783  0.47542874  0.25432113     1.49500
O1432       O  0.50186987  0.00908936  0.26095629    -1.82700
O1433       O  0.54818450  0.44417882  0.27642123    -0.73300
O1434       O  0.55871548  0.07219846  0.29400946    -0.73100
O1435       O  0.60571557  0.08989251  0.24098503    -0.72700
O1436       O  0.48758523  0.44508491  0.29216165    -0.73300
O1437       O  0.59285192  0.00919240  0.23930717    -0.72900
O1438       O  0.57232828  0.13063591  0.27448600    -0.73500
O1439       O  0.92733116  0.02852566  0.23876523    -0.72900
O1440       O  0.94645833  0.52702167  0.29009425    -0.73700
O1441       O  0.00672990  0.09929447  0.23879378    -0.73100
O1442       O  0.88313988  0.46185735  0.27620378    -0.73500
O1443       O  0.90593279  0.40911761  0.24111311    -0.73400
O1444       O  0.98084508  0.40902757  0.24028136    -0.73200
C1445       C  0.52424389  0.43516599  0.29031337     0.78600
C1446       C  0.57710377  0.11913718  0.28938952     0.79100
C1447       C  0.61715936  0.05716403  0.23502584     0.78000
C1448       C  0.96059663  0.07337806  0.23301093     0.78400
C1449       C  0.89973810  0.48978735  0.28932267     0.79500
C1450       C  0.93330896  0.38965751  0.23583939     0.78600
C1451       C  0.66762338  0.33052164  0.81183993     0.46900
H1452       H  0.66757378  0.32995617  0.82556790    -0.02100
C1453       C  0.66775402  0.33191603  0.77979996     0.47000
H1454       H  0.66831040  0.33299346  0.76607642    -0.02100
C1455       C  0.64318857  0.36398938  0.80425704    -0.15800
C1456       C  0.72545274  0.35559737  0.80396833    -0.15600
C1457       C  0.63433198  0.27296237  0.80390265    -0.15900
C1458       C  0.64391115  0.36307119  0.78715630    -0.15900
C1459       C  0.72309952  0.35565134  0.78686429    -0.15500
C1460       C  0.63609466  0.27598556  0.78674898    -0.15800
C1461       C  0.99668737  0.99569491  0.82522826     0.46900
H1462       H  0.00087341  0.49768037  0.81135028    -0.02100
C1463       C  0.99598984  0.99216388  0.85726249     0.47000
H1464       H  0.99585863  0.99028504  0.87097612    -0.02100
C1465       C  0.52890301  0.05341768  0.83340078    -0.15800
C1466       C  0.94340717  0.47098023  0.83311002    -0.15600
C1467       C  0.52749946  0.46607064  0.83322415    -0.15900
C1468       C  0.52610409  0.04922321  0.85049109    -0.15900
C1469       C  0.94609036  0.47071165  0.85021958    -0.15500
C1470       C  0.52704766  0.46842748  0.85030089    -0.15800
C1471       C  0.66900382  0.32285016  0.52285227     0.46900
H1472       H  0.66646369  0.31302540  0.53593182    -0.02100
C1473       C  0.66958717  0.33775684  0.49137292     0.47000
H1474       H  0.66969383  0.34366842  0.47781517    -0.02100
C1475       C  0.70103128  0.30388463  0.51322439    -0.15800
C1476       C  0.61402620  0.29657231  0.51583314    -0.15600
C1477       C  0.69265877  0.38098969  0.51913307    -0.15900
C1478       C  0.70241783  0.31022538  0.49642164    -0.15900
C1479       C  0.61163512  0.30107096  0.49891061    -0.15500
C1480       C  0.69479460  0.39172624  0.50199273    -0.15800
C1481       C  0.83393502  0.17080391  0.47653547     0.46900
H1482       H  0.83152000  0.17311228  0.49017572    -0.02100
C1483       C  0.84020960  0.16581885  0.44479600     0.47000
H1484       H  0.84400527  0.16117823  0.43161249    -0.02100
C1485       C  0.81058075  0.11190729  0.46972984    -0.15800
C1486       C  0.80276486  0.19434498  0.46650559    -0.15600
C1487       C  0.89311343  0.20327997  0.46994395    -0.15900
C1488       C  0.81297188  0.11177711  0.45268332    -0.15900
C1489       C  0.80739264  0.19038809  0.44921066    -0.15500
C1490       C  0.89343504  0.19963132  0.45311025    -0.15800
Zn1491     Zn  0.81222705  0.10549165  0.60022405     1.49700
Zn1492     Zn  0.79334913  0.20310372  0.59889347     1.49400
Zn1493     Zn  0.90995990  0.22107434  0.60068029     1.49100
Zn1494     Zn  0.84366629  0.17595966  0.56910673     1.49500
O1495       O  0.83950483  0.17660759  0.59251940    -1.82700
O1496       O  0.75524668  0.08917434  0.61641380    -0.73300
O1497       O  0.83131895  0.26020311  0.61550900    -0.73100
O1498       O  0.92489269  0.18112437  0.61766509    -0.72700
O1499       O  0.73348015  0.15033174  0.61327021    -0.73300
O1500       O  0.86266249  0.09832786  0.61464597    -0.72900
O1501       O  0.91409933  0.27934615  0.61393810    -0.73500
O1502       O  0.91336529  0.21667844  0.56078287    -0.72900
O1503       O  0.77058746  0.22876932  0.57853269    -0.73700
O1504       O  0.96512928  0.24889100  0.58264039    -0.73100
O1505       O  0.80620246  0.20506264  0.55855731    -0.73500
O1506       O  0.81717990  0.10714037  0.55981551    -0.73400
O1507       O  0.78919954  0.05362527  0.58149406    -0.73200
C1508       C  0.72891829  0.11030418  0.62082227     0.78600
C1509       C  0.87833169  0.28495145  0.62063462     0.79100
C1510       C  0.90268164  0.13346275  0.62211952     0.78000
C1511       C  0.95815391  0.24305973  0.56706670     0.78400
C1512       C  0.77986506  0.22542941  0.56324562     0.79500
C1513       C  0.79555681  0.06173882  0.56593736     0.78600
Zn1514     Zn  0.50105092  0.50011118  0.68829873     1.49700
Zn1515     Zn  0.96474263  0.03638587  0.71616763     1.49400
Zn1516     Zn  0.96292315  0.42819209  0.71700760     1.49100
Zn1517     Zn  0.57259727  0.03520571  0.71658398     1.49500
O1518       O  0.50137437  0.49844546  0.71120932    -1.82700
O1519       O  0.00322518  0.06322011  0.67804727    -0.73300
O1520       O  0.90378886  0.49235132  0.73140247    -0.73100
O1521       O  0.93424411  0.38433212  0.69603211    -0.72700
O1522       O  0.94824055  0.06697662  0.69586335    -0.73300
O1523       O  0.93885839  0.44581151  0.67923853    -0.72900
O1524       O  0.90599910  0.41825447  0.73203679    -0.73500
O1525       O  0.58242112  0.48355618  0.73237206    -0.72900
O1526       O  0.51017808  0.09060283  0.73248398    -0.73700
O1527       O  0.50772017  0.40741135  0.73151100    -0.73100
O1528       O  0.58743310  0.09470769  0.73163516    -0.73500
O1529       O  0.62113989  0.05796097  0.69610406    -0.73400
O1530       O  0.56356337  0.00272926  0.67809915    -0.73200
C1531       C  0.97026894  0.07693961  0.68164395     0.78600
C1532       C  0.88717854  0.44630160  0.73686474     0.79100
C1533       C  0.92508338  0.39858957  0.68207015     0.78000
C1534       C  0.55370611  0.43641646  0.73713141     0.78400
C1535       C  0.55702552  0.10952687  0.73747497     0.79500
C1536       C  0.60989773  0.03728643  0.68170404     0.78600
C1537       C  0.83680942  0.16895574  0.15989424     0.46900
H1538       H  0.83802288  0.17267180  0.14622406    -0.02100
C1539       C  0.83505581  0.16041719  0.19170582     0.47000
H1540       H  0.83244363  0.15404055  0.20506101    -0.02100
C1541       C  0.77856461  0.13204316  0.16714702    -0.15800
C1542       C  0.87102222  0.14407158  0.16626713    -0.15600
C1543       C  0.85932442  0.22454039  0.16952720    -0.15900
C1544       C  0.78016379  0.12967463  0.18427003    -0.15900
C1545       C  0.87009084  0.14235437  0.18319884    -0.15500
C1546       C  0.85592422  0.21754497  0.18685547    -0.15800
C1547       C  0.50256049  0.99942867  0.14658978     0.46900
H1548       H  0.50426364  0.00293780  0.16027289    -0.02100
C1549       C  0.49782790  0.99047131  0.11465470     0.47000
H1550       H  0.49501463  0.98584469  0.10099709    -0.02100
C1551       C  0.96965654  0.44162504  0.13889486    -0.15800
C1552       C  0.96730579  0.02067499  0.13874745    -0.15600
C1553       C  0.55951520  0.02995056  0.13778084    -0.15900
C1554       C  0.96972837  0.44217846  0.12172410    -0.15900
C1555       C  0.96668442  0.01590921  0.12175059    -0.15500
C1556       C  0.55439910  0.02357443  0.12067199    -0.15800
Zn1557     Zn  0.63606707  0.36978383  0.93399471     1.49700
Zn1558     Zn  0.73852022  0.36026332  0.93385926     1.49400
Zn1559     Zn  0.62654286  0.25744867  0.93378151     1.49100
Zn1560     Zn  0.66658201  0.32974820  0.90262530     1.49500
O1561       O  0.66693971  0.32936539  0.92630108    -1.82700
O1562       O  0.68510288  0.42451051  0.94942389    -0.73300
O1563       O  0.74307991  0.31290812  0.95021621    -0.73100
O1564       O  0.57335627  0.25130782  0.94979362    -0.72700
O1565       O  0.75966064  0.42390311  0.94787217    -0.73300
O1566       O  0.57562627  0.32735993  0.94909842    -0.72900
O1567       O  0.66821299  0.23749124  0.94857212    -0.73500
O1568       O  0.62251583  0.26121768  0.89305081    -0.72900
O1569       O  0.78834166  0.37559933  0.91480805    -0.73700
O1570       O  0.59385502  0.20751276  0.91469524    -0.73100
O1571       O  0.73517576  0.35470923  0.89320971    -0.73500
O1572       O  0.64206526  0.37388607  0.89345093    -0.73400
O1573       O  0.61596941  0.40106219  0.91511579    -0.73200
C1574       C  0.73162346  0.44076549  0.95426282     0.78600
C1575       C  0.71254365  0.26656407  0.95523206     0.79100
C1576       C  0.55895967  0.28220289  0.95532681     0.78000
C1577       C  0.59682245  0.21578627  0.89911801     0.78400
C1578       C  0.78027044  0.37212261  0.89923419     0.79500
C1579       C  0.62167111  0.39870551  0.89954598     0.78600
Zn1580     Zn  0.87252204  0.12808244  0.03792259     1.49700
Zn1581     Zn  0.86928167  0.23520820  0.03755230     1.49400
Zn1582     Zn  0.76323046  0.12487459  0.03642844     1.49100
Zn1583     Zn  0.83375269  0.16302957  0.06834273     1.49500
O1584       O  0.83461971  0.16283880  0.04472185    -1.82700
O1585       O  0.93297446  0.17596141  0.02383624    -0.73300
O1586       O  0.82348404  0.24683060  0.02233362    -0.73100
O1587       O  0.75612094  0.07198155  0.01965735    -0.72700
O1588       O  0.92803375  0.24837840  0.02230702    -0.73300
O1589       O  0.83045936  0.07095449  0.02148589    -0.72900
O1590       O  0.74795297  0.17160265  0.02229166    -0.73500
O1591       O  0.76409272  0.12348668  0.07691761    -0.72900
O1592       O  0.89100408  0.28620857  0.05666617    -0.73700
O1593       O  0.71123038  0.09181290  0.05522197    -0.73100
O1594       O  0.86223562  0.23151361  0.07794979    -0.73500
O1595       O  0.87168007  0.13281866  0.07851853    -0.73400
O1596       O  0.89712451  0.10303978  0.05742717    -0.73200
C1597       C  0.94650507  0.22010814  0.01733150     0.78600
C1598       C  0.77776578  0.21754769  0.01668450     0.79100
C1599       C  0.78692577  0.05691612  0.01440941     0.78000
C1600       C  0.71902208  0.09657535  0.07082327     0.78400
C1601       C  0.88412501  0.27736538  0.07219240     0.79500
C1602       C  0.89406261  0.10930536  0.07292512     0.78600
C1603       C  0.76196057  0.23416239  0.00151142    -0.03900
C1604       C  0.79642417  0.25211239  0.98770161    -0.01000
C1605       C  0.77927826  0.25987148  0.97229051     0.04000
C1606       C  0.72744330  0.24915002  0.97039434    -0.03900
C1607       C  0.69287701  0.23090835  0.98415047    -0.01000
C1608       C  0.71060128  0.22483637  0.99973105     0.04000
C1609       C  0.84929303  0.26108643  0.98899153     0.38600
C1610       C  0.63936848  0.21979945  0.98257194     0.38600
C1611       C  0.67702817  0.21234922  0.01414230     0.37000
C1612       C  0.81488035  0.27790789  0.95823017     0.37000
N1613       N  0.65017758  0.20357671  0.02556349    -0.37800
N1614       N  0.84333901  0.29237021  0.94705603    -0.37800
N1615       N  0.59638347  0.21011788  0.98155000    -0.37200
N1616       N  0.89161239  0.26864992  0.98976719    -0.37200
C1617       C  0.75049238  0.47552649  0.96897991    -0.03900
C1618       C  0.77668065  0.46554157  0.98194506    -0.01000
C1619       C  0.78549062  0.98650613  0.99636251     0.04000
C1620       C  0.77454003  0.02738090  0.99854156    -0.03900
C1621       C  0.75662865  0.04403699  0.98480163    -0.01000
C1622       C  0.73450128  0.51267185  0.97144729     0.04000
C1623       C  0.79170280  0.42602644  0.98012029     0.38600
C1624       C  0.74872920  0.08847707  0.98616555     0.38600
C1625       C  0.71075283  0.52608357  0.95798986     0.37000
C1626       C  0.80429186  0.96905828  0.01015088     0.37000
N1627       N  0.69182412  0.53687085  0.94730610    -0.37800
N1628       N  0.81931236  0.95475570  0.02103989    -0.37800
N1629       N  0.74199569  0.12367172  0.98699208    -0.37200
N1630       N  0.80370078  0.39450539  0.97884500    -0.37200
C1631       C  0.52695698  0.26699733  0.97064650    -0.03900
C1632       C  0.98923412  0.21385235  0.97351738    -0.01000
C1633       C  0.96631903  0.19812780  0.98929246     0.04000
C1634       C  0.97861967  0.23559133  0.00201706    -0.03900
C1635       C  0.51407376  0.28794758  0.99899420    -0.01000
C1636       C  0.54034012  0.30361035  0.98366769     0.04000
C1637       C  0.97386636  0.17522527  0.96042371     0.38600
C1638       C  0.52561326  0.32700662  0.01163862     0.38600
C1639       C  0.58340698  0.35694886  0.98184354     0.37000
C1640       C  0.92938738  0.14303756  0.99204587     0.37000
N1641       N  0.61793312  0.39942170  0.98064428    -0.37800
N1642       N  0.90091673  0.09872246  0.99384969    -0.37800
N1643       N  0.53485967  0.35895481  0.02143405    -0.37200
N1644       N  0.96152322  0.14416471  0.95009877    -0.37200
C1645       C  0.94818769  0.39559848  0.11018125    -0.03900
C1646       C  0.97797789  0.39700863  0.09609712    -0.01000
C1647       C  0.95481130  0.36231682  0.08283290     0.04000
C1648       C  0.90379068  0.32035825  0.08431961    -0.03900
C1649       C  0.87393675  0.31610851  0.09850466    -0.01000
C1650       C  0.89514532  0.35451933  0.11106726     0.04000
C1651       C  0.03375075  0.43045554  0.09489978     0.38600
C1652       C  0.81914501  0.27541030  0.09909767     0.38600
C1653       C  0.85889640  0.35620289  0.12274507     0.37000
C1654       C  0.98446291  0.36950291  0.06767351     0.37000
N1655       N  0.82711831  0.35642490  0.13104854    -0.37800
N1656       N  0.00804190  0.37607110  0.05558288    -0.37800
N1657       N  0.77550186  0.24297593  0.09914305    -0.37200
N1658       N  0.57533154  0.45249477  0.09061567    -0.37200
C1659       C  0.91413973  0.08669685  0.08508720    -0.03900
C1660       C  0.94486928  0.11671647  0.09854640    -0.01000
C1661       C  0.96304551  0.09428794  0.11029576     0.04000
C1662       C  0.94526041  0.03980320  0.10988710    -0.03900
C1663       C  0.91167083  0.00976505  0.09676478    -0.01000
C1664       C  0.89844172  0.03357518  0.08408803     0.04000
C1665       C  0.96107903  0.17183142  0.09965637     0.38600
C1666       C  0.88284470  0.45618771  0.09498395     0.38600
C1667       C  0.86687348  0.00258708  0.07017496     0.37000
C1668       C  0.50703146  0.12959980  0.11966477     0.37000
N1669       N  0.82711109  0.47623148  0.05965964    -0.37800
N1670       N  0.54256487  0.16006309  0.12719399    -0.37800
N1671       N  0.86082571  0.41185504  0.09235823    -0.37200
N1672       N  0.47542675  0.21520434  0.09864088    -0.37200
C1673       C  0.67529458  0.07344706  0.08263619    -0.03900
C1674       C  0.67843206  0.04811320  0.09700069    -0.01000
C1675       C  0.64002289  0.03229633  0.10951235     0.04000
C1676       C  0.59791410  0.04240215  0.10790311    -0.03900
C1677       C  0.59576752  0.06790899  0.09311257    -0.01000
C1678       C  0.63441838  0.08367082  0.08079956     0.04000
C1679       C  0.72111636  0.03736787  0.09873069     0.38600
C1680       C  0.55533031  0.08006372  0.08962774     0.38600
C1681       C  0.63399507  0.11394580  0.06659496     0.37000
C1682       C  0.64244613  0.00095637  0.12290522     0.37000
N1683       N  0.63356187  0.13832120  0.05544809    -0.37800
N1684       N  0.64628416  0.97456965  0.13272368    -0.37800
N1685       N  0.52723717  0.09242137  0.08405479    -0.37200
N1686       N  0.75540110  0.02928071  0.09999883    -0.37200
C1687       C  0.89804907  0.11765703  0.15654729    -0.03900
C1688       C  0.86810235  0.07094495  0.14738848    -0.01000
C1689       C  0.88836524  0.03724431  0.14292461     0.04000
C1690       C  0.94017108  0.04875440  0.14723551    -0.03900
C1691       C  0.96930065  0.09440561  0.15680749    -0.01000
C1692       C  0.95073511  0.13015607  0.15995698     0.04000
C1693       C  0.81516445  0.05623478  0.14280654     0.38600
C1694       C  0.52137145  0.11046449  0.16144022     0.38600
C1695       C  0.98941994  0.18295029  0.16437658     0.37000
C1696       C  0.84587133  0.49134864  0.13341865     0.37000
N1697       N  0.02308657  0.22514305  0.16680257    -0.37800
N1698       N  0.81733348  0.45326817  0.12653271    -0.37800
N1699       N  0.56265840  0.12168533  0.16613784    -0.37200
N1700       N  0.77284784  0.04378782  0.13892573    -0.37200
C1701       C  0.88746262  0.28018452  0.16121688    -0.03900
C1702       C  0.93302271  0.29821770  0.15125214    -0.01000
C1703       C  0.96224856  0.35131308  0.14531565     0.04000
C1704       C  0.94683533  0.38903543  0.14878148    -0.03900
C1705       C  0.90163017  0.37100690  0.15884711    -0.01000
C1706       C  0.86986112  0.31667587  0.16323047     0.04000
C1707       C  0.94624289  0.26067255  0.14492827     0.38600
C1708       C  0.88336369  0.40682221  0.16287898     0.38600
C1709       C  0.81430215  0.29644481  0.16441389     0.37000
C1710       C  0.00850127  0.36630892  0.13540448     0.37000
N1711       N  0.77004355  0.28230389  0.16398831    -0.37800
N1712       N  0.54351336  0.37562976  0.12727950    -0.37800
N1713       N  0.86819673  0.43498918  0.16604623    -0.37200
N1714       N  0.95647624  0.23166339  0.13879253    -0.37200
C1715       C  0.61496509  0.05922175  0.14630511    -0.03900
C1716       C  0.62945009  0.03392086  0.15843161    -0.01000
C1717       C  0.68328275  0.05332396  0.16287829     0.04000
C1718       C  0.72479123  0.10344540  0.15764650    -0.03900
C1719       C  0.71071700  0.12895511  0.14552839    -0.01000
C1720       C  0.65724597  0.10798634  0.14016846     0.04000
C1721       C  0.58943267  0.98536902  0.16573313     0.38600
C1722       C  0.75102336  0.17885936  0.13915426     0.38600
C1723       C  0.64643291  0.13878521  0.12861612     0.37000
C1724       C  0.69620746  0.01883569  0.17181330     0.37000
N1725       N  0.64000359  0.16443109  0.11916184    -0.37800
N1726       N  0.70571579  0.99034729  0.17872458    -0.37800
N1727       N  0.78349992  0.21872174  0.13410173    -0.37200
N1728       N  0.55817822  0.94686704  0.17192426    -0.37200
C1729       C  0.92056031  0.11953714  0.63744566    -0.03900
C1730       C  0.97437043  0.14339698  0.64114674    -0.01000
C1731       C  0.99063174  0.13358406  0.65645269     0.04000
C1732       C  0.95337997  0.09835483  0.66797979    -0.03900
C1733       C  0.89956528  0.07472061  0.66433118    -0.01000
C1734       C  0.88323718  0.08611091  0.64933647     0.04000
C1735       C  0.01328161  0.17665910  0.62899902     0.38600
C1736       C  0.86067173  0.03575101  0.67544006     0.38600
C1737       C  0.82759602  0.06375899  0.64652984     0.37000
C1738       C  0.04602605  0.15962829  0.66022130     0.37000
N1739       N  0.78297009  0.04524990  0.64471350    -0.37800
N1740       N  0.58906136  0.17510926  0.66263058    -0.37800
N1741       N  0.82960414  0.00439655  0.68417510    -0.37200
N1742       N  0.04438884  0.20314385  0.61933426    -0.37200
C1743       C  0.89031783  0.31522319  0.63624590    -0.03900
C1744       C  0.86605060  0.34461778  0.64005467    -0.01000
C1745       C  0.87346960  0.36822124  0.65573380     0.04000
C1746       C  0.90531413  0.36271860  0.66775534    -0.03900
C1747       C  0.92870474  0.33252588  0.66404959    -0.01000
C1748       C  0.92171957  0.30938476  0.64839555     0.04000
C1749       C  0.83567692  0.35301749  0.62758781     0.38600
C1750       C  0.96332915  0.32803762  0.67587359     0.38600
C1751       C  0.94802812  0.28010291  0.64502433     0.37000
C1752       C  0.84935167  0.39945827  0.65929790     0.37000
N1753       N  0.97039526  0.25796447  0.64270866    -0.37800
N1754       N  0.33285997  0.42347057  0.66297405    -0.37800
N1755       N  0.99112443  0.32443321  0.68516675    -0.37200
N1756       N  0.81164551  0.36008665  0.61767720    -0.37200
C1757       C  0.69732084  0.09113760  0.63638466    -0.03900
C1758       C  0.69976913  0.12758224  0.64829696    -0.01000
C1759       C  0.67542223  0.11034000  0.66390690     0.04000
C1760       C  0.64828948  0.05656372  0.66787548    -0.03900
C1761       C  0.64806080  0.02042998  0.65640218    -0.01000
C1762       C  0.67178290  0.03739175  0.64070434     0.04000
C1763       C  0.72833314  0.18332586  0.64485918     0.38600
C1764       C  0.62328764  0.96542058  0.66081867     0.38600
C1765       C  0.66923534  0.99903158  0.62898500     0.37000
C1766       C  0.67663743  0.14809987  0.67562933     0.37000
N1767       N  0.66758016  0.96837050  0.61975338    -0.37800
N1768       N  0.67767558  0.17825302  0.68495744    -0.37800
N1769       N  0.60362205  0.92163029  0.66438264    -0.37200
N1770       N  0.75071510  0.22790824  0.64236744    -0.37200
C1771       C  0.71110731  0.41963095  0.53365323    -0.03900
C1772       C  0.73815157  0.41689868  0.54808461    -0.01000
C1773       C  0.76624146  0.46136589  0.55818105     0.04000
C1774       C  0.77354800  0.01804871  0.55423980    -0.03900
C1775       C  0.71983237  0.98249843  0.55478877    -0.01000
C1776       C  0.69517237  0.45680979  0.53473029     0.04000
C1777       C  0.72650593  0.36807664  0.55581799     0.38600
C1778       C  0.68771454  0.98762239  0.56755738     0.38600
C1779       C  0.63986830  0.43864165  0.53451469     0.37000
C1780       C  0.79912294  0.46092094  0.57148532     0.37000
N1781       N  0.59667233  0.42798630  0.53584823    -0.37800
N1782       N  0.82504233  0.46027710  0.58210518    -0.37800
N1783       N  0.66212372  0.99201527  0.57756154    -0.37200
N1784       N  0.71607132  0.33020432  0.56305205    -0.37200
C1785       C  0.56980759  0.27897553  0.52821191    -0.03900
C1786       C  0.53853448  0.30294370  0.52894071    -0.01000
C1787       C  0.50574518  0.29462820  0.54267446     0.04000
C1788       C  0.00194580  0.26275098  0.55543572    -0.03900
C1789       C  0.53454559  0.23918462  0.55549032    -0.01000
C1790       C  0.56585020  0.24565863  0.54155798     0.04000
C1791       C  0.53888635  0.33680659  0.51601194     0.38600
C1792       C  0.53024879  0.20411857  0.56884099     0.38600
C1793       C  0.59064247  0.21436045  0.54102845     0.37000
C1794       C  0.96981247  0.31633200  0.54196628     0.37000
N1795       N  0.60649059  0.18590531  0.54209550    -0.37800
N1796       N  0.94307329  0.33446251  0.54192446    -0.37800
N1797       N  0.02366508  0.17619077  0.57947622    -0.37200
N1798       N  0.53577762  0.36459600  0.50660508    -0.37200
C1799       C  0.76106909  0.24553982  0.54995269    -0.03900
C1800       C  0.72410248  0.21007690  0.53863814    -0.01000
C1801       C  0.70858141  0.22876925  0.52500863     0.04000
C1802       C  0.73001639  0.28313488  0.52272918    -0.03900
C1803       C  0.77316861  0.31805740  0.53253662    -0.01000
C1804       C  0.78804966  0.29930860  0.54630712     0.04000
C1805       C  0.70124722  0.15410531  0.54126344     0.38600
C1806       C  0.80108609  0.37371318  0.52909079     0.38600
C1807       C  0.83043786  0.33543639  0.55693495     0.37000
C1808       C  0.66864657  0.19109374  0.51414593     0.37000
N1809       N  0.86404109  0.36422278  0.56545846    -0.37800
N1810       N  0.63614152  0.15800660  0.50634300    -0.37800
N1811       N  0.82395528  0.41845995  0.52687045    -0.37200
N1812       N  0.68338415  0.10961604  0.54336622    -0.37200
C1813       C  0.72552217  0.44906696  0.49463977    -0.03900
C1814       C  0.71337385  0.48907804  0.49836105    -0.01000
C1815       C  0.74629090  0.04442051  0.49136000     0.04000
C1816       C  0.78616361  0.05887038  0.47933962    -0.03900
C1817       C  0.79562957  0.01810999  0.47412965    -0.01000
C1818       C  0.76999545  0.46586046  0.48426685     0.04000
C1819       C  0.65934840  0.47469942  0.50034358     0.38600
C1820       C  0.84323398  0.03134395  0.46523923     0.38600
C1821       C  0.77486020  0.42742796  0.47465424     0.37000
C1822       C  0.73757460  0.08439295  0.49838150     0.37000
N1823       N  0.77790733  0.39819717  0.46588277    -0.37800
N1824       N  0.73077498  0.11605142  0.50431686    -0.37800
N1825       N  0.88111985  0.03942481  0.45850173    -0.37200
N1826       N  0.61694417  0.46695244  0.50091234    -0.37200
C1827       C  0.94675003  0.23114762  0.47944291    -0.03900
C1828       C  0.96159971  0.20218468  0.48978939    -0.01000
C1829       C  0.51633019  0.22289285  0.49462033     0.04000
C1830       C  0.55723431  0.27432995  0.49007819    -0.03900
C1831       C  0.54196311  0.30295699  0.47979113    -0.01000
C1832       C  0.98840844  0.28260601  0.47508399     0.04000
C1833       C  0.92152140  0.15120008  0.49558138     0.38600
C1834       C  0.58157642  0.35405100  0.47381360     0.38600
C1835       C  0.97655347  0.32177966  0.46943587     0.37000
C1836       C  0.52944576  0.18759493  0.50285705     0.37000
N1837       N  0.97101769  0.35676017  0.46611440    -0.37800
N1838       N  0.53786116  0.15738463  0.50908215    -0.37800
N1839       N  0.61282876  0.39476690  0.46890542    -0.37200
N1840       N  0.88993674  0.11073285  0.50053243    -0.37200
C1841       C  0.77663267  0.22420139  0.47442364    -0.03900
C1842       C  0.80661707  0.27365208  0.48210618    -0.01000
C1843       C  0.78435783  0.30523894  0.48678585     0.04000
C1844       C  0.72965445  0.28708121  0.48549326    -0.03900
C1845       C  0.69959739  0.23736260  0.47806652    -0.01000
C1846       C  0.72175355  0.20519413  0.47399052     0.04000
C1847       C  0.85821361  0.28866735  0.48812676     0.38600
C1848       C  0.64427826  0.21722440  0.47545690     0.38600
C1849       C  0.68618709  0.14968235  0.47336008     0.37000
C1850       C  0.81983785  0.35845264  0.49179777     0.37000
N1851       N  0.65477647  0.10584324  0.47385206    -0.37800
N1852       N  0.85047714  0.40143124  0.49478661    -0.37800
N1853       N  0.60009854  0.20031839  0.47307112    -0.37200
N1854       N  0.89782362  0.30059691  0.49436178    -0.37200
C1855       C  0.82419633  0.39396657  0.88749367    -0.03900
C1856       C  0.86363931  0.44600973  0.88943000    -0.01000
C1857       C  0.89981995  0.47174451  0.87663671     0.04000
C1858       C  0.90044366  0.44466103  0.86216714    -0.03900
C1859       C  0.86068373  0.39113946  0.86056608    -0.01000
C1860       C  0.82202628  0.36667682  0.87298106     0.04000
C1861       C  0.86516754  0.47453205  0.90434332     0.38600
C1862       C  0.86284253  0.35782452  0.84785731     0.38600
C1863       C  0.78208008  0.31186194  0.87148460     0.37000
C1864       C  0.93294129  0.52719851  0.87874319     0.37000
N1865       N  0.75037363  0.26813426  0.87047047    -0.37800
N1866       N  0.95389470  0.57031748  0.88286982    -0.37800
N1867       N  0.86230891  0.32821778  0.83841509    -0.37200
N1868       N  0.86646674  0.49717175  0.91617273    -0.37200
C1869       C  0.59979869  0.42044394  0.88777482    -0.03900
C1870       C  0.54618953  0.40268168  0.88845921    -0.01000
C1871       C  0.52227928  0.41532436  0.87568270     0.04000
C1872       C  0.55194916  0.44785851  0.86220280    -0.03900
C1873       C  0.60632730  0.46480820  0.86152441    -0.01000
C1874       C  0.62975202  0.45061007  0.87419452     0.04000
C1875       C  0.51449167  0.36766245  0.90180594     0.38600
C1876       C  0.64067934  0.50200202  0.84923417     0.38600
C1877       C  0.68561675  0.46937605  0.87376754     0.37000
C1878       C  0.46611572  0.38942507  0.87638649     0.37000
N1879       N  0.73008941  0.48430664  0.87355298    -0.37800
N1880       N  0.42191648  0.36327441  0.87896412    -0.37800
N1881       N  0.67111720  0.53232666  0.84013389    -0.37200
N1882       N  0.48915621  0.33955002  0.91230252    -0.37200
C1883       C  0.54568948  0.09408211  0.86259954    -0.03900
C1884       C  0.53016427  0.13241833  0.86140593    -0.01000
C1885       C  0.54606023  0.17189968  0.87352452     0.04000
C1886       C  0.57479515  0.17187288  0.88741965    -0.03900
C1887       C  0.58883432  0.13346023  0.88904868    -0.01000
C1888       C  0.57540115  0.09559762  0.87667243     0.04000
C1889       C  0.49119707  0.12733841  0.84954943     0.38600
C1890       C  0.61958666  0.13425566  0.90327579     0.38600
C1891       C  0.59463169  0.06001399  0.87905308     0.37000
C1892       C  0.52954154  0.21049225  0.87238030     0.37000
N1893       N  0.61344416  0.03592800  0.88325083    -0.37800
N1894       N  0.51627271  0.24116548  0.87161114    -0.37800
N1895       N  0.64388456  0.13484814  0.91458432    -0.37200
N1896       N  0.45945098  0.12502986  0.84066778    -0.37200
C1897       C  0.76890253  0.37888176  0.77495855    -0.03900
C1898       C  0.76852829  0.34941885  0.76099416    -0.01000
C1899       C  0.80508234  0.37281914  0.74814452     0.04000
C1900       C  0.84591633  0.42456845  0.74961544    -0.03900
C1901       C  0.84935988  0.45372460  0.76381933    -0.01000
C1902       C  0.81008519  0.43187185  0.77614623     0.04000
C1903       C  0.73298230  0.29403011  0.75941309     0.38600
C1904       C  0.89018928  0.00491893  0.76383037     0.38600
C1905       C  0.80896375  0.46704576  0.78837664     0.37000
C1906       C  0.80005271  0.34343739  0.73310654     0.37000
N1907       N  0.80964999  0.49737098  0.79754486    -0.37800
N1908       N  0.79605330  0.32008296  0.72118178    -0.37800
N1909       N  0.92488570  0.04726449  0.76505473    -0.37200
N1910       N  0.70929239  0.25023625  0.75604746    -0.37200
C1911       C  0.57486154  0.41629604  0.74993346    -0.03900
C1912       C  0.62690463  0.42809101  0.74861555    -0.01000
C1913       C  0.65072602  0.41695801  0.76177395     0.04000
C1914       C  0.62096017  0.38655496  0.77557208    -0.03900
C1915       C  0.56721375  0.37226366  0.77641629    -0.01000
C1916       C  0.54524805  0.38943759  0.76406478     0.04000
C1917       C  0.65566045  0.44975609  0.73322582     0.38600
C1918       C  0.53189012  0.33368021  0.78821352     0.38600
C1919       C  0.99077046  0.37824275  0.76514466     0.37000
C1920       C  0.70668851  0.44037352  0.76071212     0.37000
N1921       N  0.94777819  0.36870815  0.76605779    -0.37800
N1922       N  0.75095368  0.46390038  0.75786374    -0.37800
N1923       N  0.50168556  0.30238860  0.79714284    -0.37200
N1924       N  0.68743543  0.99200317  0.72388112    -0.37200
C1925       C  0.57606690  0.15018086  0.75038951    -0.03900
C1926       C  0.56674754  0.19180595  0.74859976    -0.01000
C1927       C  0.58368501  0.23073926  0.76077783     0.04000
C1928       C  0.61252250  0.23018260  0.77484255    -0.03900
C1929       C  0.62265521  0.18802450  0.77629831    -0.01000
C1930       C  0.60252396  0.14729622  0.76448695     0.04000
C1931       C  0.54108352  0.19576393  0.73368794     0.38600
C1932       C  0.66129578  0.19044146  0.78783732     0.38600
C1933       C  0.60994721  0.10271865  0.76660761     0.37000
C1934       C  0.57125673  0.27114220  0.75764833     0.37000
N1935       N  0.61539760  0.06681692  0.76801693    -0.37800
N1936       N  0.55848275  0.29944326  0.75254810    -0.37800
N1937       N  0.69303457  0.19135144  0.79642311    -0.37200
N1938       N  0.52070601  0.19892663  0.72187639    -0.37200
C1939       C  0.61816215  0.39268311  0.81348647    -0.03900
C1940       C  0.57547236  0.36567171  0.82453275    -0.01000
C1941       C  0.54284391  0.38670855  0.82933592     0.04000
C1942       C  0.55372998  0.43781798  0.82440072    -0.03900
C1943       C  0.59702846  0.46518003  0.81357751    -0.01000
C1944       C  0.62968531  0.44413634  0.80880536     0.04000
C1945       C  0.56303979  0.31433572  0.83036563     0.38600
C1946       C  0.60738901  0.01669543  0.80803364     0.38600
C1947       C  0.67760248  0.47774066  0.79987603     0.37000
C1948       C  0.49569540  0.35320327  0.83860258     0.37000
N1949       N  0.71575642  0.50597939  0.79288355    -0.37800
N1950       N  0.95637124  0.32352836  0.84459156    -0.37800
N1951       N  0.61924911  0.05924118  0.80462700    -0.37200
N1952       N  0.55304510  0.27336016  0.83506124    -0.37200
C1953       C  0.77961132  0.38083228  0.81301598    -0.03900
C1954       C  0.79458164  0.42190136  0.82458725    -0.01000
C1955       C  0.84822390  0.45472924  0.82951095     0.04000
C1956       C  0.88914982  0.44556366  0.82414497    -0.03900
C1957       C  0.87418064  0.40441090  0.81261611    -0.01000
C1958       C  0.82047152  0.37139167  0.80775932     0.04000
C1959       C  0.75503819  0.43255134  0.83093514     0.38600
C1960       C  0.91355098  0.39271163  0.80684249     0.38600
C1961       C  0.80724497  0.32533541  0.79803822     0.37000
C1962       C  0.86094218  0.49976035  0.83968514     0.37000
N1963       N  0.79804936  0.28882980  0.79030961    -0.37800
N1964       N  0.86895351  0.53506384  0.84785665    -0.37800
N1965       N  0.94498817  0.38305781  0.80246068    -0.37200
N1966       N  0.72376937  0.44127236  0.83615749    -0.37200
C1967       C  0.55776841  0.10869960  0.82473590    -0.03900
C1968       C  0.53143731  0.12466137  0.81354761    -0.01000
C1969       C  0.55349225  0.17837503  0.80836188     0.04000
C1970       C  0.60498110  0.21852495  0.81305283    -0.03900
C1971       C  0.63117175  0.20275421  0.82435456    -0.01000
C1972       C  0.60882942  0.14920140  0.82975873     0.04000
C1973       C  0.97838201  0.08549871  0.80822325     0.38600
C1974       C  0.68338336  0.24123011  0.82966778     0.38600
C1975       C  0.64050044  0.13622304  0.84016509     0.37000
C1976       C  0.52137089  0.19219918  0.79851819     0.37000
N1977       N  0.66712584  0.12800505  0.84861018    -0.37800
N1978       N  0.49479099  0.20182506  0.79056250    -0.37800
N1979       N  0.72526119  0.27169942  0.83383279    -0.37200
N1980       N  0.93653162  0.05511935  0.80400567    -0.37200
C1981       C  0.91026935  0.34372184  0.22416177    -0.03900
C1982       C  0.86556574  0.33065594  0.21437596    -0.01000
C1983       C  0.84561911  0.28769721  0.20322785     0.04000
C1984       C  0.87171641  0.25909143  0.20069890    -0.03900
C1985       C  0.90459302  0.26304715  0.21422968    -0.01000
C1986       C  0.92995358  0.30896205  0.22379386     0.04000
C1987       C  0.83642646  0.35768102  0.21670541     0.38600
C1988       C  0.89641767  0.21687537  0.22305790     0.38600
C1989       C  0.97087872  0.31503940  0.23511971     0.37000
C1990       C  0.79101269  0.26444690  0.19926218     0.37000
N1991       N  0.00326720  0.31942582  0.24412428    -0.37800
N1992       N  0.74695100  0.25012553  0.19792337    -0.37800
N1993       N  0.88890915  0.18128356  0.23109666    -0.37200
N1994       N  0.81187031  0.37778527  0.21863672    -0.37200
C1995       C  0.94559795  0.09344721  0.21838005    -0.03900
C1996       C  0.91296281  0.05769766  0.20621010    -0.01000
C1997       C  0.88822257  0.07284533  0.19441826     0.04000
C1998       C  0.90151101  0.12575283  0.19337616    -0.03900
C1999       C  0.94485327  0.16332340  0.20256635    -0.01000
C2000       C  0.96441215  0.14723511  0.21585353     0.04000
C2001       C  0.90772342  0.00640162  0.20516674     0.38600
C2002       C  0.96988641  0.21840192  0.19832679     0.38600
C2003       C  0.00171019  0.18596278  0.22719526     0.37000
C2004       C  0.84658144  0.03283987  0.18448490     0.37000
N2005       N  0.54005525  0.21988570  0.23244474    -0.37800
N2006       N  0.81277419  0.99947887  0.17711991    -0.37800
N2007       N  0.99086181  0.26244692  0.19497726    -0.37200
N2008       N  0.90570984  0.96646279  0.20418990    -0.37200
C2009       C  0.65771956  0.07473997  0.22195575    -0.03900
C2010       C  0.69509055  0.05892323  0.22233646    -0.01000
C2011       C  0.73285909  0.07442864  0.20967673     0.04000
C2012       C  0.73413150  0.10641421  0.19622763    -0.03900
C2013       C  0.69476061  0.12065168  0.19575782    -0.01000
C2014       C  0.65713204  0.10501123  0.20852743     0.04000
C2015       C  0.69603782  0.02797660  0.23622143     0.38600
C2016       C  0.69181989  0.15218170  0.18257229     0.38600
C2017       C  0.61711040  0.11980750  0.20765157     0.37000
C2018       C  0.76989738  0.05645946  0.21125026     0.37000
N2019       N  0.58565937  0.13206459  0.20688834    -0.37800
N2020       N  0.79674809  0.03985591  0.21450029    -0.37800
N2021       N  0.68623487  0.17714658  0.17262927    -0.37200
N2022       N  0.69702890  0.00330264  0.24719856    -0.37200
C2023       C  0.57841175  0.40983540  0.33704860    -0.03900
C2024       C  0.61408598  0.44497721  0.32515680    -0.01000
C2025       C  0.59689176  0.44728409  0.30908749     0.04000
C2026       C  0.54285603  0.42025602  0.30534590    -0.03900
C2027       C  0.50666014  0.38785307  0.31763010    -0.01000
C2028       C  0.52447002  0.38145728  0.33319232     0.04000
C2029       C  0.66884341  0.47922032  0.32928359     0.38600
C2030       C  0.45088380  0.36056891  0.31425363     0.38600
C2031       C  0.48692241  0.34676778  0.34542337     0.37000
C2032       C  0.63763212  0.96122599  0.29397876     0.37000
N2033       N  0.45687623  0.31901501  0.35513379    -0.37800
N2034       N  0.66925583  0.99183069  0.28521365    -0.37800
N2035       N  0.90685573  0.33217135  0.30943210    -0.37200
N2036       N  0.71254920  0.96144834  0.32693861    -0.37200
C2037       C  0.61535439  0.21324024  0.33286636    -0.03900
C2038       C  0.63979147  0.18346987  0.32984016    -0.01000
C2039       C  0.63195036  0.15712194  0.31466929     0.04000
C2040       C  0.59855400  0.15915934  0.30254568    -0.03900
C2041       C  0.57565886  0.19037830  0.30528253    -0.01000
C2042       C  0.58408913  0.21742612  0.32033494     0.04000
C2043       C  0.67105896  0.17781121  0.34263598     0.38600
C2044       C  0.04813811  0.19682903  0.29224141     0.38600
C2045       C  0.56060365  0.24982460  0.32270393     0.37000
C2046       C  0.65784728  0.12726838  0.31160179     0.37000
N2047       N  0.54138344  0.27526920  0.32438742    -0.37800
N2048       N  0.67868545  0.10364048  0.30920269    -0.37800
N2049       N  0.01978795  0.19798761  0.28260970    -0.37200
N2050       N  0.69575499  0.17320754  0.35289547    -0.37200
C2051       C  0.86756440  0.47609674  0.30468625    -0.03900
C2052       C  0.89172038  0.48051325  0.32035919    -0.01000
C2053       C  0.86133206  0.46344239  0.33488782     0.04000
C2054       C  0.80697056  0.44186794  0.33400414    -0.03900
C2055       C  0.78256649  0.43686308  0.31852609    -0.01000
C2056       C  0.81290751  0.45523592  0.30396453     0.04000
C2057       C  0.94761139  0.50034951  0.32177012     0.38600
C2058       C  0.72585857  0.40843088  0.31736529     0.38600
C2059       C  0.78776994  0.45316336  0.28834139     0.37000
C2060       C  0.88572855  0.46629696  0.35075750     0.37000
N2061       N  0.76759225  0.45177012  0.27592898    -0.37800
N2062       N  0.90491903  0.46802867  0.36339801    -0.37800
N2063       N  0.68069710  0.38468231  0.31636077    -0.37200
N2064       N  0.99208088  0.51623483  0.32310771    -0.37200
C2065       C  0.78513612  0.06501582  0.44120666    -0.05100
C2066       C  0.73009771  0.02960287  0.44207992    -0.01000
C2067       C  0.71895689  0.50193148  0.43205496     0.04000
C2068       C  0.74968658  0.50238717  0.41869217    -0.03900
C2069       C  0.78651067  0.02340273  0.41492659    -0.01000
C2070       C  0.81281561  0.05978167  0.42759354     0.04000
C2071       C  0.69800514  0.02987662  0.45547042     0.38600
C2072       C  0.81582077  0.01837624  0.40123648     0.38600
C2073       C  0.86906536  0.08781560  0.42667658     0.37000
C2074       C  0.66251714  0.46712618  0.43167422     0.37000
N2075       N  0.91323830  0.10512601  0.42432366    -0.37800
N2076       N  0.61766868  0.43919043  0.43137091    -0.37800
N2077       N  0.83924400  0.01418545  0.39044917    -0.37200
N2078       N  0.66825832  0.02460672  0.46565952    -0.37200
C2079       C  0.51493123  0.26780663  0.41742236    -0.03900
C2080       C  0.98682268  0.28969928  0.42031408    -0.01000
C2081       C  0.94965111  0.27137730  0.43315593     0.04000
C2082       C  0.94084193  0.22731111  0.44260127    -0.03900
C2083       C  0.97305623  0.20555629  0.44018739    -0.01000
C2084       C  0.00519816  0.21965415  0.42612187     0.04000
C2085       C  0.50081050  0.34262191  0.41287467     0.38600
C2086       C  0.97329391  0.16858207  0.45192086     0.38600
C2087       C  0.53081454  0.19424899  0.42162418     0.37000
C2088       C  0.92106403  0.29832828  0.43657911     0.37000
N2089       N  0.54688181  0.16823712  0.41678559    -0.37800
N2090       N  0.89900604  0.32070315  0.43914522    -0.37800
N2091       N  0.97536479  0.13969308  0.46112810    -0.37200
N2092       N  0.50994725  0.38048962  0.40588737    -0.37200
C2093       C  0.78606602  0.20935103  0.43514242    -0.03900
C2094       C  0.81346186  0.23393599  0.42004119    -0.01000
C2095       C  0.79855137  0.26443683  0.41058212     0.04000
C2096       C  0.75145636  0.26328819  0.41417064    -0.03900
C2097       C  0.71980470  0.23037640  0.42720413    -0.01000
C2098       C  0.73430510  0.19832715  0.43572685     0.04000
C2099       C  0.84906071  0.22111757  0.41177650     0.38600
C2100       C  0.67239026  0.22901751  0.43232196     0.38600
C2101       C  0.69432070  0.14406791  0.43751802     0.37000
C2102       C  0.83334334  0.29867503  0.39767423     0.37000
N2103       N  0.66196152  0.10044711  0.43784222    -0.37800
N2104       N  0.86174504  0.32625448  0.38759076    -0.37800
N2105       N  0.63592742  0.22992316  0.43700372    -0.37200
N2106       N  0.87595581  0.21050652  0.40434277    -0.37200
Zn2107     Zn  0.59015680  0.78295250  0.37092917     1.49700
Zn2108     Zn  0.70897058  0.80742843  0.37104273     1.49400
Zn2109     Zn  0.68278211  0.89994946  0.37046092     1.49100
Zn2110     Zn  0.66207516  0.82949475  0.40219000     1.49500
O2111       O  0.66126864  0.83004880  0.37854250    -1.82700
O2112       O  0.58579240  0.72065483  0.35991052    -0.73300
O2113       O  0.76589059  0.86215905  0.35632567    -0.73100
O2114       O  0.62867665  0.90168483  0.35578851    -0.72700
O2115       O  0.66975542  0.75097352  0.35457588    -0.73300
O2116       O  0.57283254  0.81715075  0.35221599    -0.72900
O2117       O  0.74086404  0.92123226  0.35418168    -0.73500
O2118       O  0.69249429  0.90003408  0.41089864    -0.72900
O2119       O  0.73503357  0.78064624  0.39030400    -0.73700
O2120       O  0.70614094  0.95195338  0.38918151    -0.73100
O2121       O  0.70157194  0.79873015  0.41203089    -0.73500
O2122       O  0.59139281  0.78991461  0.41104301    -0.73400
O2123       O  0.53705066  0.75986283  0.38959024    -0.73200
C2124       C  0.62170979  0.72026423  0.35134919     0.78600
C2125       C  0.76857247  0.90213008  0.34930632     0.79100
C2126       C  0.59182316  0.86452247  0.34770218     0.78000
C2127       C  0.70808974  0.94477640  0.40467352     0.78400
C2128       C  0.72808358  0.77993679  0.40597965     0.79500
C2129       C  0.54565325  0.76522846  0.40511574     0.78600
Zn2130     Zn  0.53062366  0.96644879  0.25378868     1.49700
Zn2131     Zn  0.49868016  0.51007145  0.28214851     1.49400
Zn2132     Zn  0.53666111  0.58018015  0.25460248     1.49100
Zn2133     Zn  0.92952077  0.97789616  0.25483294     1.49500
O2134       O  0.49640846  0.50700140  0.25947219    -1.82700
O2135       O  0.54606187  0.93224197  0.27345509    -0.73300
O2136       O  0.56682497  0.56478403  0.29014626    -0.73100
O2137       O  0.59755720  0.59149281  0.24129850    -0.72700
O2138       O  0.50633150  0.94986104  0.29367113    -0.73300
O2139       O  0.58976413  0.51242554  0.24053163    -0.72900
O2140       O  0.56010468  0.62434121  0.27576950    -0.73500
O2141       O  0.91863735  0.52444158  0.23836875    -0.72900
O2142       O  0.93888682  0.00137225  0.29496546    -0.73700
O2143       O  0.99603134  0.59827210  0.23895225    -0.73100
O2144       O  0.88084171  0.96354541  0.27478924    -0.73500
O2145       O  0.90557260  0.91148997  0.24126730    -0.73400
O2146       O  0.97814750  0.90765560  0.23980997    -0.73200
C2147       C  0.53006662  0.92712978  0.28842817     0.78600
C2148       C  0.57394551  0.61042386  0.28890942     0.79100
C2149       C  0.61148666  0.56000910  0.23587951     0.78000
C2150       C  0.95024408  0.57050210  0.23297649     0.78400
C2151       C  0.89213776  0.97740682  0.28990155     0.79500
C2152       C  0.93076889  0.89027485  0.23561830     0.78600
C2153       C  0.66487340  0.83033153  0.81055859     0.46900
H2154       H  0.66474926  0.82994480  0.82428724    -0.02100
C2155       C  0.66523635  0.83133854  0.77850700     0.47000
H2156       H  0.66558572  0.83221926  0.76476952    -0.02100
C2157       C  0.64028625  0.86349170  0.80290302    -0.15800
C2158       C  0.72266979  0.85513629  0.80266083    -0.15600
C2159       C  0.63188878  0.77279784  0.80275725    -0.15900
C2160       C  0.64153481  0.86273003  0.78581671    -0.15900
C2161       C  0.72054132  0.85481585  0.78551591    -0.15500
C2162       C  0.63388272  0.77560338  0.78564017    -0.15800
C2163       C  0.00114427  0.49756317  0.82508230     0.46900
H2164       H  0.99697632  0.99711849  0.81150350    -0.02100
C2165       C  0.00188482  0.49720212  0.85714707     0.47000
H2166       H  0.00250120  0.49698001  0.87088964    -0.02100
C2167       C  0.53168074  0.55511422  0.83289322    -0.15800
C2168       C  0.93862493  0.96824398  0.83307358    -0.15600
C2169       C  0.52314308  0.96360532  0.83248036    -0.15900
C2170       C  0.52934476  0.55283004  0.84999026    -0.15900
C2171       C  0.94060804  0.96637334  0.85017415    -0.15500
C2172       C  0.52233840  0.96421164  0.84953877    -0.15800
C2173       C  0.68150605  0.84181925  0.52471229     0.46900
H2174       H  0.68643980  0.84487033  0.53829915    -0.02100
C2175       C  0.67418264  0.83855464  0.49275693     0.47000
H2176       H  0.67134867  0.83708780  0.47906434    -0.02100
C2177       C  0.71194902  0.81827227  0.51658359    -0.15800
C2178       C  0.62432432  0.80940565  0.51891515    -0.15600
C2179       C  0.70245714  0.89593878  0.51727966    -0.15900
C2180       C  0.70962407  0.81579906  0.49957129    -0.15900
C2181       C  0.61830280  0.80512816  0.50181722    -0.15500
C2182       C  0.69937736  0.89681112  0.50022279    -0.15800
C2183       C  0.83997500  0.67223365  0.48163265     0.46900
H2184       H  0.83738058  0.67475529  0.49529288    -0.02100
C2185       C  0.84660044  0.66704383  0.45003748     0.47000
H2186       H  0.85148521  0.66195303  0.43684945    -0.02100
C2187       C  0.81853457  0.61337051  0.47509555    -0.15800
C2188       C  0.80701673  0.69389970  0.47148242    -0.15600
C2189       C  0.89922191  0.70575511  0.47495272    -0.15900
C2190       C  0.82239307  0.61356146  0.45807728    -0.15900
C2191       C  0.81121101  0.68940468  0.45413333    -0.15500
C2192       C  0.89957235  0.70212142  0.45808992    -0.15800
Zn2193     Zn  0.80942364  0.59746997  0.60092719     1.49700
Zn2194     Zn  0.79471993  0.69750919  0.60037977     1.49400
Zn2195     Zn  0.90868888  0.71231233  0.60018227     1.49100
Zn2196     Zn  0.83686705  0.66614065  0.56930725     1.49500
O2197       O  0.83719501  0.66838683  0.59288678    -1.82700
O2198       O  0.75265693  0.58179496  0.61712506    -0.73300
O2199       O  0.83647273  0.75528110  0.61600152    -0.73100
O2200       O  0.92352979  0.67382542  0.61760452    -0.72700
O2201       O  0.73649345  0.64732764  0.61535609    -0.73300
O2202       O  0.86020478  0.59110034  0.61549262    -0.72900
O2203       O  0.91880729  0.77474065  0.61269796    -0.73500
O2204       O  0.90633376  0.70164748  0.55982099    -0.72900
O2205       O  0.77144853  0.72533157  0.58128006    -0.73700
O2206       O  0.95984753  0.73464615  0.58128471    -0.73100
O2207       O  0.80166903  0.70067985  0.55992403    -0.73500
O2208       O  0.80446540  0.59559349  0.56049094    -0.73400
O2209       O  0.78436827  0.54415358  0.58252707    -0.73200
C2210       C  0.72926944  0.60531633  0.62216646     0.78600
C2211       C  0.88445562  0.78141082  0.61993433     0.79100
C2212       C  0.90081986  0.62669130  0.62261605     0.78000
C2213       C  0.95179365  0.72733604  0.56577477     0.78400
C2214       C  0.77850019  0.72318807  0.56579539     0.79500
C2215       C  0.78532953  0.55062240  0.56689792     0.78600
Zn2216     Zn  0.50156494  0.00044196  0.68738101     1.49700
Zn2217     Zn  0.96581704  0.53752778  0.71739521     1.49400
Zn2218     Zn  0.96133561  0.92666853  0.71574763     1.49100
Zn2219     Zn  0.57373393  0.53169768  0.71731155     1.49500
O2220       O  0.50034606  0.99951150  0.71034735    -1.82700
O2221       O  0.00493748  0.56731768  0.68004638    -0.73300
O2222       O  0.90116633  0.99019942  0.72959545    -0.73100
O2223       O  0.93431749  0.88165139  0.69495835    -0.72700
O2224       O  0.94703737  0.56701829  0.69735991    -0.73300
O2225       O  0.93861584  0.94199811  0.67774600    -0.72900
O2226       O  0.90309238  0.91594318  0.73050249    -0.73500
O2227       O  0.58158737  0.98684872  0.73134074    -0.72900
O2228       O  0.51454278  0.59132309  0.73233121    -0.73700
O2229       O  0.50770739  0.90998424  0.73048756    -0.73100
O2230       O  0.59081951  0.59306080  0.73147376    -0.73500
O2231       O  0.62152364  0.55172273  0.69696507    -0.73400
O2232       O  0.56149736  0.50211472  0.67861455    -0.73200
C2233       C  0.97014824  0.57880347  0.68333548     0.78600
C2234       C  0.88410876  0.94410129  0.73510933     0.79100
C2235       C  0.92557995  0.89508643  0.68080819     0.78000
C2236       C  0.55358238  0.93959729  0.73609759     0.78400
C2237       C  0.56161389  0.60975248  0.73698479     0.79500
C2238       C  0.60869863  0.53285603  0.68239184     0.78600
C2239       C  0.82682384  0.66835947  0.16028332     0.46900
H2240       H  0.82808944  0.67259194  0.14662592    -0.02100
C2241       C  0.82464057  0.65910181  0.19207760     0.47000
H2242       H  0.82203268  0.65228294  0.20542811    -0.02100
C2243       C  0.76848918  0.63174065  0.16742991    -0.15800
C2244       C  0.86074486  0.64313974  0.16657612    -0.15600
C2245       C  0.84971265  0.72348718  0.17011187    -0.15900
C2246       C  0.77004296  0.62890544  0.18450807    -0.15900
C2247       C  0.85957669  0.64103672  0.18351476    -0.15500
C2248       C  0.84542626  0.71626006  0.18739652    -0.15800
C2249       C  0.49301320  0.49975120  0.14568588     0.46900
H2250       H  0.49339793  0.50110232  0.15940979    -0.02100
C2251       C  0.49172434  0.49628669  0.11364700     0.47000
H2252       H  0.49084585  0.49469640  0.09991900    -0.02100
C2253       C  0.97517056  0.93870576  0.14063617    -0.15800
C2254       C  0.95942379  0.52297812  0.13801738    -0.15600
C2255       C  0.55064783  0.53218488  0.13757337    -0.15900
C2256       C  0.97427020  0.93662592  0.12354585    -0.15900
C2257       C  0.96031109  0.52029085  0.12095173    -0.15500
C2258       C  0.54757956  0.52888276  0.12043272    -0.15800
Zn2259     Zn  0.63686043  0.87545218  0.93302279     1.49700
Zn2260     Zn  0.73159435  0.85424471  0.93297090     1.49400
Zn2261     Zn  0.61393786  0.75740352  0.93412630     1.49100
Zn2262     Zn  0.66015592  0.82627237  0.90233743     1.49500
O2263       O  0.66034224  0.82804487  0.92593768    -1.82700
O2264       O  0.68945499  0.93043734  0.94765988    -0.73300
O2265       O  0.73283134  0.80507192  0.94906469    -0.73100
O2266       O  0.56055045  0.75796542  0.94917751    -0.72700
O2267       O  0.75773563  0.91862163  0.94697195    -0.73300
O2268       O  0.57673547  0.83992417  0.94855504    -0.72900
O2269       O  0.65277885  0.73584127  0.94968646    -0.73500
O2270       O  0.61579285  0.75786611  0.89368452    -0.72900
O2271       O  0.78034523  0.86665376  0.91387247    -0.73700
O2272       O  0.58122872  0.70500221  0.91534993    -0.73100
O2273       O  0.72771014  0.84910765  0.89233454    -0.73500
O2274       O  0.63534671  0.86880598  0.89263235    -0.73400
O2275       O  0.61776760  0.90551419  0.91376422    -0.73200
C2276       C  0.73434665  0.94126739  0.95281997     0.78600
C2277       C  0.69937809  0.76120524  0.95515415     0.79100
C2278       C  0.55271749  0.79393549  0.95449458     0.78000
C2279       C  0.58746290  0.71296349  0.89975943     0.78400
C2280       C  0.77245491  0.86441832  0.89831351     0.79500
C2281       C  0.61909579  0.89769018  0.89831841     0.78600
Zn2282     Zn  0.87150946  0.63707154  0.03649313     1.49700
Zn2283     Zn  0.86255984  0.74120635  0.03766018     1.49400
Zn2284     Zn  0.75840735  0.62704646  0.03689344     1.49100
Zn2285     Zn  0.82911995  0.66526139  0.06766909     1.49500
O2286       O  0.83060147  0.66784226  0.04421751    -1.82700
O2287       O  0.92879943  0.68740833  0.02142038    -0.73300
O2288       O  0.81316845  0.75106188  0.02304676    -0.73100
O2289       O  0.74928273  0.56998189  0.02161468    -0.72700
O2290       O  0.92098131  0.75847780  0.02174249    -0.73300
O2291       O  0.82879459  0.57982062  0.02050192    -0.72900
O2292       O  0.74354558  0.67096465  0.02169576    -0.73500
O2293       O  0.76063437  0.63063982  0.07719002    -0.72900
O2294       O  0.88815212  0.79074218  0.05743219    -0.73700
O2295       O  0.70637375  0.59869453  0.05593152    -0.73100
O2296       O  0.86371737  0.73251747  0.07777094    -0.73500
O2297       O  0.86213730  0.62972310  0.07667008    -0.73400
O2298       O  0.89732328  0.61033378  0.05553959    -0.73200
C2299       C  0.94026396  0.73211952  0.01574767     0.78600
C2300       C  0.76940041  0.71807318  0.01669512     0.79100
C2301       C  0.78206564  0.55922891  0.01522139     0.78000
C2302       C  0.71505245  0.60486541  0.07145793     0.78400
C2303       C  0.88490509  0.77909030  0.07277609     0.79500
C2304       C  0.88853717  0.61062649  0.07101191     0.78600
C2305       C  0.75142656  0.73197695  0.00142641    -0.03900
C2306       C  0.78585694  0.75189258  0.98768523    -0.01000
C2307       C  0.76710292  0.75564525  0.97206109     0.04000
C2308       C  0.71462977  0.74327645  0.97018077    -0.03900
C2309       C  0.68007560  0.72334658  0.98390916    -0.01000
C2310       C  0.69828330  0.71683289  0.99934468     0.04000
C2311       C  0.84074682  0.76783262  0.98931253     0.38600
C2312       C  0.62618663  0.71143910  0.98253108     0.38600
C2313       C  0.66219524  0.69576234  0.01316300     0.37000
C2314       C  0.80189963  0.77144322  0.95779933     0.37000
N2315       N  0.63223878  0.67870572  0.02389099    -0.37800
N2316       N  0.82961737  0.78383047  0.94645396    -0.37800
N2317       N  0.58319299  0.70185512  0.98156702    -0.37200
N2318       N  0.88485569  0.78169250  0.99024976    -0.37200
C2319       C  0.75601270  0.97604375  0.96746817    -0.03900
C2320       C  0.77642789  0.96103090  0.98093710    -0.01000
C2321       C  0.78605137  0.49195228  0.99718860     0.04000
C2322       C  0.76772312  0.52713217  0.99991635    -0.03900
C2323       C  0.74207668  0.53753771  0.98687507    -0.01000
C2324       C  0.74744852  0.01854270  0.96941433     0.04000
C2325       C  0.78564543  0.91742851  0.97937299     0.38600
C2326       C  0.72540889  0.57577942  0.98886725     0.38600
C2327       C  0.72926309  0.03638619  0.95551360     0.37000
C2328       C  0.81369159  0.48187698  0.01020151     0.37000
N2329       N  0.71462778  0.05057914  0.94448192    -0.37800
N2330       N  0.83610840  0.47402142  0.02048549    -0.37800
N2331       N  0.71171822  0.60598275  0.99022462    -0.37200
N2332       N  0.79322212  0.88281321  0.97821079    -0.37200
C2333       C  0.51888805  0.78275084  0.96919130    -0.03900
C2334       C  0.97366236  0.73574695  0.97034102    -0.01000
C2335       C  0.94880819  0.71858888  0.98576914     0.04000
C2336       C  0.96990344  0.75005063  0.00004505    -0.03900
C2337       C  0.51070339  0.79939871  0.99844975    -0.01000
C2338       C  0.53755337  0.81599758  0.98320960     0.04000
C2339       C  0.94953735  0.70526902  0.95553663     0.38600
C2340       C  0.52836824  0.83422744  0.01259434     0.38600
C2341       C  0.58550123  0.86631916  0.98228675     0.37000
C2342       C  0.89998203  0.66933744  0.98660961     0.37000
N2343       N  0.62366288  0.90652792  0.98167819    -0.37800
N2344       N  0.86102261  0.62996401  0.98677566    -0.37800
N2345       N  0.54211850  0.86232354  0.02379777    -0.37200
N2346       N  0.92995846  0.68134582  0.94371702    -0.37200
C2347       C  0.95207858  0.88860067  0.11275941    -0.03900
C2348       C  0.98379134  0.88506156  0.10012551    -0.01000
C2349       C  0.96128951  0.85226185  0.08637550     0.04000
C2350       C  0.90717159  0.81918276  0.08567069    -0.03900
C2351       C  0.87554556  0.81714563  0.09904329    -0.01000
C2352       C  0.89752552  0.85243484  0.11236849     0.04000
C2353       C  0.03970570  0.90941220  0.10147987     0.38600
C2354       C  0.81932684  0.78144448  0.09830792     0.38600
C2355       C  0.86190325  0.85545941  0.12397175     0.37000
C2356       C  0.99434115  0.85001744  0.07337771     0.37000
N2357       N  0.83045699  0.85619408  0.13229885    -0.37800
N2358       N  0.02087396  0.84822388  0.06315983    -0.37800
N2359       N  0.77464043  0.75302462  0.09748318    -0.37200
N2360       N  0.58447872  0.92274458  0.10019451    -0.37200
C2361       C  0.90802617  0.58815583  0.08331300    -0.03900
C2362       C  0.93753687  0.61887292  0.09681858    -0.01000
C2363       C  0.95362242  0.59692015  0.10937588     0.04000
C2364       C  0.93762722  0.54285668  0.10902105    -0.03900
C2365       C  0.90485637  0.51196905  0.09580444    -0.01000
C2366       C  0.89068549  0.53468997  0.08300516     0.04000
C2367       C  0.95505945  0.67446076  0.09705482     0.38600
C2368       C  0.88754703  0.95380396  0.09595216     0.38600
C2369       C  0.85549976  0.50230576  0.06991972     0.37000
C2370       C  0.49463706  0.63287366  0.11997354     0.37000
N2371       N  0.84213086  0.97787569  0.05908179    -0.37800
N2372       N  0.52782022  0.66389586  0.12813022    -0.37800
N2373       N  0.86338511  0.90955210  0.09331909    -0.37200
N2374       N  0.47100692  0.71934586  0.09632844    -0.37200
C2375       C  0.67210871  0.58386954  0.08356409    -0.03900
C2376       C  0.67373321  0.55628992  0.09755866    -0.01000
C2377       C  0.63453843  0.53951056  0.10987909     0.04000
C2378       C  0.59317286  0.55083842  0.10837796    -0.03900
C2379       C  0.59342857  0.57980491  0.09419388    -0.01000
C2380       C  0.63295563  0.59667028  0.08214016     0.04000
C2381       C  0.71398270  0.54187643  0.09861775     0.38600
C2382       C  0.55435064  0.59400196  0.09103377     0.38600
C2383       C  0.63512329  0.63035864  0.06863694     0.37000
C2384       C  0.63343211  0.50351161  0.12225467     0.37000
N2385       N  0.63674182  0.65779467  0.05815759    -0.37800
N2386       N  0.63527718  0.47466935  0.13153565    -0.37800
N2387       N  0.52801871  0.60890285  0.08571434    -0.37200
N2388       N  0.74608840  0.53047544  0.09921458    -0.37200
C2389       C  0.88860322  0.61784243  0.15670263    -0.03900
C2390       C  0.85970646  0.57276072  0.14677084    -0.01000
C2391       C  0.88010406  0.53924025  0.14215041     0.04000
C2392       C  0.93162120  0.55020224  0.14670318    -0.03900
C2393       C  0.96026687  0.59517620  0.15665592    -0.01000
C2394       C  0.94107310  0.63015742  0.16031131     0.04000
C2395       C  0.80801848  0.56019277  0.14138791     0.38600
C2396       C  0.51230504  0.60863819  0.16159307     0.38600
C2397       C  0.97918286  0.68267083  0.16522630     0.37000
C2398       C  0.85364622  0.98864035  0.13461988     0.37000
N2399       N  0.01240964  0.72482247  0.16797349    -0.37800
N2400       N  0.82441250  0.95018954  0.12805251    -0.37800
N2401       N  0.55381872  0.61969239  0.16600183    -0.37200
N2402       N  0.76694659  0.55044471  0.13691253    -0.37200
C2403       C  0.88136180  0.77888668  0.16212889    -0.03900
C2404       C  0.92738521  0.79413008  0.15270927    -0.01000
C2405       C  0.96189508  0.84748518  0.14804279     0.04000
C2406       C  0.94942174  0.88740474  0.15102366    -0.03900
C2407       C  0.90334960  0.87220097  0.16037362    -0.01000
C2408       C  0.86801616  0.81837947  0.16452239     0.04000
C2409       C  0.93561119  0.75445613  0.14527624     0.38600
C2410       C  0.88902477  0.91102360  0.16434136     0.38600
C2411       C  0.81341590  0.80235240  0.16635565     0.37000
C2412       C  0.01166591  0.86098020  0.14061443     0.37000
N2413       N  0.76993246  0.79139502  0.16651907    -0.37800
N2414       N  0.55289636  0.87100930  0.13505654    -0.37800
N2415       N  0.87697840  0.94150693  0.16766470    -0.37200
N2416       N  0.94197808  0.72425183  0.13813665    -0.37200
C2417       C  0.60518312  0.56064636  0.14656968    -0.03900
C2418       C  0.61949073  0.53391095  0.15816928    -0.01000
C2419       C  0.67314956  0.55347564  0.16285267     0.04000
C2420       C  0.71469377  0.60409662  0.15796026    -0.03900
C2421       C  0.70059519  0.63091914  0.14632407    -0.01000
C2422       C  0.64706942  0.61065141  0.14119913     0.04000
C2423       C  0.57943293  0.48399585  0.16470094     0.38600
C2424       C  0.74080553  0.68128132  0.14015248     0.38600
C2425       C  0.63544165  0.64346221  0.13083093     0.37000
C2426       C  0.68580379  0.51874417  0.17174923     0.37000
N2427       N  0.62795589  0.67072034  0.12242825    -0.37800
N2428       N  0.69482962  0.48993089  0.17867181    -0.37800
N2429       N  0.77273525  0.72139506  0.13506215    -0.37200
N2430       N  0.54812188  0.44429363  0.17023039    -0.37200
C2431       C  0.91896276  0.61445558  0.63821817    -0.03900
C2432       C  0.97288106  0.63954640  0.64192939    -0.01000
C2433       C  0.98961049  0.63276353  0.65757706     0.04000
C2434       C  0.95271079  0.59937288  0.66952196    -0.03900
C2435       C  0.89871334  0.57569156  0.66604255    -0.01000
C2436       C  0.88190407  0.58271627  0.65044348     0.04000
C2437       C  0.01151252  0.67033038  0.62937872     0.38600
C2438       C  0.85999306  0.54175165  0.67816022     0.38600
C2439       C  0.82607711  0.55648017  0.64715431     0.37000
C2440       C  0.04516492  0.66000360  0.66130724     0.37000
N2441       N  0.78144906  0.53455919  0.64476698    -0.37800
N2442       N  0.58957678  0.67120224  0.66276827    -0.37800
N2443       N  0.82900555  0.51472793  0.68777545    -0.37200
N2444       N  0.04243376  0.69475347  0.61939354    -0.37200
C2445       C  0.89862255  0.81445225  0.63489767    -0.03900
C2446       C  0.87392427  0.84366899  0.63821345    -0.01000
C2447       C  0.87676226  0.86412600  0.65414319     0.04000
C2448       C  0.90770560  0.85900551  0.66655313    -0.03900
C2449       C  0.93299824  0.83033026  0.66316184    -0.01000
C2450       C  0.92866125  0.80834789  0.64742139     0.04000
C2451       C  0.84811392  0.85520043  0.62495393     0.38600
C2452       C  0.96555708  0.82507659  0.67559803     0.38600
C2453       C  0.95572057  0.77967151  0.64430380     0.37000
C2454       C  0.84714647  0.88988782  0.65780862     0.37000
N2455       N  0.97828649  0.75769291  0.64205259    -0.37800
N2456       N  0.32131804  0.90579200  0.66273221    -0.37800
N2457       N  0.99145867  0.82073949  0.68547524    -0.37200
N2458       N  0.82845512  0.86519157  0.61429400    -0.37200
C2459       C  0.69803252  0.58635765  0.63763800    -0.03900
C2460       C  0.70707869  0.62211669  0.65062870    -0.01000
C2461       C  0.68080855  0.60426937  0.66588758     0.04000
C2462       C  0.64676526  0.55027643  0.66857865    -0.03900
C2463       C  0.64014363  0.51426073  0.65595832    -0.01000
C2464       C  0.66499821  0.53225288  0.64050101     0.04000
C2465       C  0.74469079  0.67743240  0.64867064     0.38600
C2466       C  0.60633118  0.45843063  0.65870028     0.38600
C2467       C  0.65523400  0.49491010  0.62740812     0.37000
C2468       C  0.68631989  0.64211116  0.67833649     0.37000
N2469       N  0.64728196  0.46493125  0.61702314    -0.37800
N2470       N  0.69047084  0.67237862  0.68816612    -0.37800
N2471       N  0.57898244  0.41403968  0.66087867    -0.37200
N2472       N  0.77463524  0.72163913  0.64744940    -0.37200
C2473       C  0.72623145  0.94202178  0.52891779    -0.03900
C2474       C  0.78015529  0.98052549  0.52804986    -0.01000
C2475       C  0.80381769  0.01721924  0.54090749     0.04000
C2476       C  0.76077912  0.50529181  0.55567526    -0.03900
C2477       C  0.72510980  0.50285505  0.54369161    -0.01000
C2478       C  0.69643996  0.94412791  0.54249253     0.04000
C2479       C  0.81302943  0.98286126  0.51442519     0.38600
C2480       C  0.71310231  0.54439774  0.54223685     0.38600
C2481       C  0.64074388  0.91023873  0.54410055     0.37000
C2482       C  0.85994928  0.05348634  0.54068134     0.37000
N2483       N  0.59699771  0.88910663  0.54771263    -0.37800
N2484       N  0.90470180  0.08204458  0.54053993    -0.37800
N2485       N  0.70405825  0.57794662  0.54114490    -0.37200
N2486       N  0.84242286  0.98746328  0.50418080    -0.37200
C2487       C  0.58005199  0.79005846  0.53138051    -0.03900
C2488       C  0.53767897  0.79945684  0.52900541    -0.01000
C2489       C  0.49494168  0.77830986  0.54003917     0.04000
C2490       C  0.99589160  0.74901441  0.55411955    -0.03900
C2491       C  0.53606582  0.74016217  0.55655931    -0.01000
C2492       C  0.57979171  0.76280816  0.54602026     0.04000
C2493       C  0.54109550  0.83793022  0.51713593     0.38600
C2494       C  0.53287482  0.70561073  0.56993770     0.38600
C2495       C  0.62514723  0.76172102  0.55197105     0.37000
C2496       C  0.95227123  0.78684422  0.53761075     0.37000
N2497       N  0.65972461  0.76218704  0.55877122    -0.37800
N2498       N  0.91755028  0.79384898  0.53553318    -0.37800
N2499       N  0.03350381  0.67989598  0.58096283    -0.37200
N2500       N  0.54177545  0.86890179  0.50821566    -0.37200
C2501       C  0.76113926  0.74827775  0.55382835    -0.03900
C2502       C  0.71743266  0.71711843  0.54400731    -0.01000
C2503       C  0.70616838  0.73887946  0.53023304     0.04000
C2504       C  0.73475586  0.79363948  0.52742994    -0.03900
C2505       C  0.77854249  0.82483030  0.53770245    -0.01000
C2506       C  0.79289113  0.80167647  0.55034508     0.04000
C2507       C  0.67969718  0.66477802  0.54963201     0.38600
C2508       C  0.81060499  0.88062709  0.53565394     0.38600
C2509       C  0.84032691  0.83287924  0.55990404     0.37000
C2510       C  0.66281117  0.70400004  0.51992068     0.37000
N2511       N  0.87824914  0.85781076  0.56740622    -0.37800
N2512       N  0.62857674  0.67240966  0.51225245    -0.37800
N2513       N  0.84067383  0.92488977  0.53544503    -0.37200
N2514       N  0.64838092  0.62413902  0.55457063    -0.37200
C2515       C  0.72243814  0.94996793  0.49084315    -0.03900
C2516       C  0.71350784  0.99084596  0.49636801    -0.01000
C2517       C  0.74928444  0.54365062  0.49512058     0.04000
C2518       C  0.79335526  0.56006682  0.48476408    -0.03900
C2519       C  0.80478980  0.52009457  0.48043156    -0.01000
C2520       C  0.76241103  0.96454558  0.47887838     0.04000
C2521       C  0.66785414  0.97797939  0.50631357     0.38600
C2522       C  0.85461946  0.53454179  0.47287297     0.38600
C2523       C  0.77196900  0.92490180  0.47200051     0.37000
C2524       C  0.73906294  0.58297674  0.50174976     0.37000
N2525       N  0.77982307  0.89380651  0.46616813    -0.37800
N2526       N  0.73249414  0.61513449  0.50738478    -0.37800
N2527       N  0.89454510  0.54422163  0.46729114    -0.37200
N2528       N  0.63175750  0.97015697  0.51410088    -0.37200
C2529       C  0.95300332  0.73440612  0.48431122    -0.03900
C2530       C  0.96808618  0.70714416  0.49534098    -0.01000
C2531       C  0.52056655  0.72625677  0.49957589     0.04000
C2532       C  0.56252149  0.77554791  0.49354261    -0.03900
C2533       C  0.54751164  0.80127158  0.48180240    -0.01000
C2534       C  0.99447139  0.78477485  0.47912533     0.04000
C2535       C  0.92805617  0.65679068  0.50166359     0.38600
C2536       C  0.58702071  0.85138332  0.47517611     0.38600
C2537       C  0.98206340  0.82201219  0.47196502     0.37000
C2538       C  0.53117779  0.69479229  0.51090216     0.37000
N2539       N  0.97527270  0.85503782  0.46721731    -0.37800
N2540       N  0.53577313  0.66798568  0.52036400    -0.37800
N2541       N  0.61788733  0.89155409  0.46981302    -0.37200
N2542       N  0.89673807  0.61664254  0.50692392    -0.37200
C2543       C  0.78111527  0.72419125  0.47938273    -0.03900
C2544       C  0.81186061  0.77426023  0.48665348    -0.01000
C2545       C  0.79013784  0.80635073  0.49134137     0.04000
C2546       C  0.73570506  0.78900064  0.48990403    -0.03900
C2547       C  0.70499984  0.73908626  0.48274725    -0.01000
C2548       C  0.72612385  0.70563604  0.47930149     0.04000
C2549       C  0.86444389  0.79024220  0.49189362     0.38600
C2550       C  0.65010563  0.72032785  0.47976425     0.38600
C2551       C  0.68948792  0.65027036  0.47984691     0.37000
C2552       C  0.82582517  0.85906318  0.49671626     0.37000
N2553       N  0.65715592  0.60692746  0.48126123    -0.37800
N2554       N  0.85714323  0.90112238  0.50035417    -0.37800
N2555       N  0.60617889  0.70492036  0.47735005    -0.37200
N2556       N  0.90530156  0.80345581  0.49737789    -0.37200
C2557       C  0.81671770  0.88691406  0.88671559    -0.03900
C2558       C  0.85544699  0.93916088  0.88891235    -0.01000
C2559       C  0.89328454  0.96543273  0.87659275     0.04000
C2560       C  0.89468015  0.93922809  0.86198218    -0.03900
C2561       C  0.85533517  0.88565716  0.86004249    -0.01000
C2562       C  0.81599034  0.86022055  0.87222868     0.04000
C2563       C  0.85463096  0.96721307  0.90365733     0.38600
C2564       C  0.85866414  0.85347744  0.84715914     0.38600
C2565       C  0.77675475  0.80524384  0.87051017     0.37000
C2566       C  0.92869294  0.02021959  0.87955619     0.37000
N2567       N  0.74568160  0.76135604  0.86929873    -0.37800
N2568       N  0.95262769  0.06274875  0.88421081    -0.37800
N2569       N  0.85932454  0.82504193  0.83748256    -0.37200
N2570       N  0.85374280  0.98924856  0.91536608    -0.37200
C2571       C  0.59657767  0.91773247  0.88636964    -0.03900
C2572       C  0.54313744  0.90044081  0.88749456    -0.01000
C2573       C  0.51810654  0.91040138  0.87447132     0.04000
C2574       C  0.54726869  0.94281238  0.86092273    -0.03900
C2575       C  0.60178120  0.96059135  0.86005965    -0.01000
C2576       C  0.62551425  0.94569925  0.87236194     0.04000
C2577       C  0.51301166  0.86940560  0.90172964     0.38600
C2578       C  0.63595829  0.00046377  0.84840772     0.38600
C2579       C  0.68087534  0.96253711  0.87132066     0.37000
C2580       C  0.46178687  0.88252273  0.87503813     0.37000
N2581       N  0.72492939  0.97576333  0.87063294    -0.37800
N2582       N  0.41753944  0.85508830  0.87725225    -0.37800
N2583       N  0.66611497  0.03291546  0.83977132    -0.37200
N2584       N  0.48915796  0.84483939  0.91304225    -0.37200
C2585       C  0.54844345  0.59856631  0.86168877    -0.03900
C2586       C  0.53061458  0.63514150  0.86062345    -0.01000
C2587       C  0.54154914  0.67143318  0.87350773     0.04000
C2588       C  0.56744141  0.66973941  0.88792097    -0.03900
C2589       C  0.58588510  0.63462498  0.88900182    -0.01000
C2590       C  0.57848289  0.60100852  0.87574407     0.04000
C2591       C  0.49461722  0.63183039  0.84792357     0.38600
C2592       C  0.61651078  0.63605318  0.90333181     0.38600
C2593       C  0.60699296  0.57344028  0.87656191     0.37000
C2594       C  0.52265089  0.70823815  0.87254080     0.37000
N2595       N  0.63439425  0.55695059  0.87902345    -0.37800
N2596       N  0.50743870  0.73738845  0.87183948    -0.37800
N2597       N  0.64108307  0.63747732  0.91467179    -0.37200
N2598       N  0.46528358  0.63186912  0.83847112    -0.37200
C2599       C  0.76630574  0.87732837  0.77351170    -0.03900
C2600       C  0.76540037  0.84784789  0.75944363    -0.01000
C2601       C  0.80127171  0.87128633  0.74638452     0.04000
C2602       C  0.84256646  0.92278195  0.74783027    -0.03900
C2603       C  0.84662237  0.95185339  0.76213257    -0.01000
C2604       C  0.80784863  0.93009300  0.77463090     0.04000
C2605       C  0.73114494  0.79221173  0.75810551     0.38600
C2606       C  0.89286250  0.50684514  0.76554338     0.38600
C2607       C  0.80753170  0.96527245  0.78702586     0.37000
C2608       C  0.79514316  0.84222678  0.73117553     0.37000
N2609       N  0.80836561  0.99555375  0.79624248    -0.37800
N2610       N  0.79010007  0.81913752  0.71910300    -0.37800
N2611       N  0.92770266  0.54916591  0.76664089    -0.37200
N2612       N  0.70930546  0.74831458  0.75482115    -0.37200
C2613       C  0.57507442  0.91990565  0.74896347    -0.03900
C2614       C  0.62844373  0.93557735  0.74855865    -0.01000
C2615       C  0.65055409  0.92067213  0.76130556     0.04000
C2616       C  0.61919586  0.88674428  0.77425846    -0.03900
C2617       C  0.56520551  0.87124660  0.77464237    -0.01000
C2618       C  0.54372724  0.88886138  0.76229400     0.04000
C2619       C  0.66120022  0.96685837  0.73474879     0.38600
C2620       C  0.52942956  0.83140214  0.78606445     0.38600
C2621       C  0.98791945  0.87531172  0.76316106     0.37000
C2622       C  0.70656323  0.94406386  0.76077642     0.37000
N2623       N  0.94433725  0.86393789  0.76381094    -0.37800
N2624       N  0.75096548  0.96832837  0.75822325    -0.37800
N2625       N  0.49887357  0.79914939  0.79467104    -0.37200
N2626       N  0.67826978  0.46632494  0.72092952    -0.37200
C2627       C  0.58183999  0.65167701  0.74930022    -0.03900
C2628       C  0.57281361  0.69327312  0.74693999    -0.01000
C2629       C  0.58480044  0.73003297  0.75951395     0.04000
C2630       C  0.61236112  0.72981335  0.77391667    -0.03900
C2631       C  0.62442856  0.68900953  0.77564138    -0.01000
C2632       C  0.60661857  0.64870530  0.76377864     0.04000
C2633       C  0.55269036  0.69934518  0.73111477     0.38600
C2634       C  0.66271544  0.69238216  0.78749736     0.38600
C2635       C  0.61614516  0.60546623  0.76602232     0.37000
C2636       C  0.56699420  0.76670348  0.75687426     0.37000
N2637       N  0.62377211  0.57095462  0.76751117    -0.37800
N2638       N  0.54968858  0.79203489  0.75253750    -0.37800
N2639       N  0.69404879  0.69335455  0.79628893    -0.37200
N2640       N  0.53713861  0.70426460  0.71849386    -0.37200
C2641       C  0.61409621  0.89124766  0.81206937    -0.03900
C2642       C  0.57050323  0.86321917  0.82272528    -0.01000
C2643       C  0.53778573  0.88402173  0.82768505     0.04000
C2644       C  0.54920023  0.93572457  0.82326228    -0.03900
C2645       C  0.59310134  0.96388987  0.81272547    -0.01000
C2646       C  0.62589632  0.94309993  0.80780225     0.04000
C2647       C  0.55745201  0.81126758  0.82811868     0.38600
C2648       C  0.61075472  0.51737028  0.80830776     0.38600
C2649       C  0.67457271  0.97754432  0.79937796     0.37000
C2650       C  0.49036590  0.84984979  0.83673797     0.37000
N2651       N  0.71351942  0.00654307  0.79290682    -0.37800
N2652       N  0.95316191  0.82026060  0.84394021    -0.37800
N2653       N  0.62220093  0.55937406  0.80432312    -0.37200
N2654       N  0.54667831  0.76979750  0.83253343    -0.37200
C2655       C  0.77633908  0.88002797  0.81188816    -0.03900
C2656       C  0.79056827  0.92046214  0.82364057    -0.01000
C2657       C  0.84359756  0.95206346  0.82924611     0.04000
C2658       C  0.88481865  0.94329345  0.82391447    -0.03900
C2659       C  0.87062970  0.90313753  0.81204893    -0.01000
C2660       C  0.81726631  0.87047561  0.80686399     0.04000
C2661       C  0.75106016  0.93210424  0.82933362     0.38600
C2662       C  0.91044465  0.89238695  0.80603640     0.38600
C2663       C  0.80449756  0.82470407  0.79705373     0.37000
C2664       C  0.85528189  0.99515824  0.84022790     0.37000
N2665       N  0.79586308  0.78843760  0.78928606    -0.37800
N2666       N  0.86241706  0.02865225  0.84913829    -0.37800
N2667       N  0.94206069  0.88348014  0.80128132    -0.37200
N2668       N  0.71976551  0.94173124  0.83390146    -0.37200
C2669       C  0.55939487  0.60937212  0.82372199    -0.03900
C2670       C  0.53211245  0.62385392  0.81244772    -0.01000
C2671       C  0.55274966  0.67726973  0.80716136     0.04000
C2672       C  0.60360352  0.71854290  0.81196453    -0.03900
C2673       C  0.63074892  0.70402598  0.82329455    -0.01000
C2674       C  0.61013051  0.65062942  0.82853060     0.04000
C2675       C  0.98045983  0.58531427  0.80759177     0.38600
C2676       C  0.68254399  0.74348255  0.82861619     0.38600
C2677       C  0.64379849  0.63818703  0.83807544     0.37000
C2678       C  0.51969969  0.68956799  0.79719281     0.37000
N2679       N  0.67250296  0.63028495  0.84551525    -0.37800
N2680       N  0.49229974  0.69788659  0.78917459    -0.37800
N2681       N  0.72414010  0.77461458  0.83280107    -0.37200
N2682       N  0.93871526  0.55397826  0.80360637    -0.37200
C2683       C  0.90513902  0.84397126  0.22409926    -0.03900
C2684       C  0.85879536  0.83084238  0.21515956    -0.01000
C2685       C  0.83656311  0.78717656  0.20421352     0.04000
C2686       C  0.86173907  0.75779881  0.20126915    -0.03900
C2687       C  0.89523568  0.76139745  0.21444477    -0.01000
C2688       C  0.92363914  0.80823655  0.22330719     0.04000
C2689       C  0.83090807  0.85886573  0.21807823     0.38600
C2690       C  0.88424761  0.71539484  0.22394793     0.38600
C2691       C  0.96688388  0.81438722  0.23348471     0.37000
C2692       C  0.78156210  0.76461151  0.20088054     0.37000
N2693       N  0.00136876  0.81908353  0.24151996    -0.37800
N2694       N  0.73749896  0.75084085  0.19997588    -0.37800
N2695       N  0.87482859  0.67990233  0.23233225    -0.37200
N2696       N  0.80771431  0.88018238  0.22045885    -0.37200
C2697       C  0.93397268  0.59070425  0.21866860    -0.03900
C2698       C  0.90282943  0.55590833  0.20605340    -0.01000
C2699       C  0.87809402  0.57140266  0.19435099     0.04000
C2700       C  0.89058477  0.62410864  0.19372629    -0.03900
C2701       C  0.93259937  0.66118741  0.20343817    -0.01000
C2702       C  0.95119747  0.64441670  0.21677375     0.04000
C2703       C  0.90037427  0.50609643  0.20413704     0.38600
C2704       C  0.95843961  0.71641021  0.19937428     0.38600
C2705       C  0.98622781  0.68241868  0.22872589     0.37000
C2706       C  0.83807837  0.53213127  0.18377345     0.37000
N2707       N  0.51833223  0.71277145  0.23708546    -0.37800
N2708       N  0.80539238  0.49958668  0.17584408    -0.37800
N2709       N  0.98040606  0.76057223  0.19615071    -0.37200
N2710       N  0.90069429  0.46755686  0.20223617    -0.37200
C2711       C  0.65152661  0.57799586  0.22281072    -0.03900
C2712       C  0.68989297  0.56358565  0.22335049    -0.01000
C2713       C  0.72408292  0.57496585  0.20991722     0.04000
C2714       C  0.72442975  0.60618237  0.19642679    -0.03900
C2715       C  0.68564088  0.62115120  0.19614487    -0.01000
C2716       C  0.64808446  0.60501312  0.20890258     0.04000
C2717       C  0.69486828  0.53744216  0.23793682     0.38600
C2718       C  0.68371499  0.65428260  0.18330718     0.38600
C2719       C  0.60465499  0.61473315  0.20738038     0.37000
C2720       C  0.75707409  0.55195805  0.21034515     0.37000
N2721       N  0.56988256  0.62207364  0.20609722    -0.37800
N2722       N  0.77993293  0.53026016  0.21239492    -0.37800
N2723       N  0.67967506  0.68109774  0.17369696    -0.37200
N2724       N  0.69920823  0.51671477  0.24947885    -0.37200
C2725       C  0.57463288  0.87651765  0.33173081    -0.03900
C2726       C  0.61286963  0.91183506  0.32036362    -0.01000
C2727       C  0.59794792  0.92302202  0.30506130     0.04000
C2728       C  0.54468398  0.90060934  0.30106600    -0.03900
C2729       C  0.50634222  0.86343074  0.31190768    -0.01000
C2730       C  0.52123182  0.85091515  0.32711272     0.04000
C2731       C  0.66812536  0.93842438  0.32429937     0.38600
C2732       C  0.45140433  0.83908236  0.30755626     0.38600
C2733       C  0.48125252  0.81416549  0.33835999     0.37000
C2734       C  0.63543467  0.47806493  0.29652409     0.37000
N2735       N  0.44917159  0.78482077  0.34728618    -0.37800
N2736       N  0.66668847  0.50192666  0.28656139    -0.37800
N2737       N  0.91400002  0.87518483  0.31736067    -0.37200
N2738       N  0.71234615  0.50724931  0.33254347    -0.37200
C2739       C  0.60773824  0.68850497  0.33595728    -0.03900
C2740       C  0.63979606  0.66918451  0.32995421    -0.01000
C2741       C  0.63049658  0.64579590  0.31418271     0.04000
C2742       C  0.59026109  0.64303146  0.30400552    -0.03900
C2743       C  0.55832331  0.66229403  0.30995981    -0.01000
C2744       C  0.56642189  0.68416182  0.32587285     0.04000
C2745       C  0.68251475  0.67323530  0.33994175     0.38600
C2746       C  0.01741333  0.66188781  0.30069221     0.38600
C2747       C  0.53185314  0.70252070  0.33155163     0.37000
C2748       C  0.66235791  0.62427852  0.30851522     0.37000
N2749       N  0.50337988  0.71616924  0.33592101    -0.37800
N2750       N  0.68780806  0.60695534  0.30419819    -0.37800
N2751       N  0.98384282  0.65991106  0.29278914    -0.37200
N2752       N  0.71706639  0.67719032  0.34778095    -0.37200
C2753       C  0.85140809  0.95961369  0.30286947    -0.03900
C2754       C  0.85341710  0.99534564  0.31483243    -0.01000
C2755       C  0.82824867  0.97715510  0.33031591     0.04000
C2756       C  0.79916132  0.92280159  0.33368125    -0.03900
C2757       C  0.79322892  0.88729895  0.32095110    -0.01000
C2758       C  0.82031256  0.90554810  0.30585874     0.04000
C2759       C  0.88156210  0.05091855  0.31112502     0.38600
C2760       C  0.75759927  0.83167503  0.32288342     0.38600
C2761       C  0.81921353  0.86834976  0.29390401     0.37000
C2762       C  0.83330379  0.01455565  0.34280863     0.37000
N2763       N  0.81892693  0.83878427  0.28448453    -0.37800
N2764       N  0.83745998  0.04471256  0.35267628    -0.37800
N2765       N  0.72908317  0.78714094  0.32388175    -0.37200
N2766       N  0.90348245  0.09517386  0.30807016    -0.37200
C2767       C  0.79773178  0.56750922  0.44648781    -0.05100
C2768       C  0.74255919  0.53542424  0.44561974    -0.01000
C2769       C  0.70450719  0.99130544  0.42975160     0.04000
C2770       C  0.73253974  0.98926107  0.41602334    -0.03900
C2771       C  0.80413094  0.53370356  0.41927951    -0.01000
C2772       C  0.82816516  0.56420296  0.43336943     0.04000
C2773       C  0.70854794  0.53657164  0.45816502     0.38600
C2774       C  0.83564162  0.53309261  0.40551908     0.38600
C2775       C  0.88442460  0.58961626  0.43413335     0.37000
C2776       C  0.64889501  0.95326507  0.43116515     0.37000
N2777       N  0.92888648  0.60539792  0.43321117    -0.37800
N2778       N  0.60479181  0.92259846  0.43225058    -0.37800
N2779       N  0.86074624  0.53287364  0.39454501    -0.37200
N2780       N  0.67793643  0.53403301  0.46757469    -0.37200
C2781       C  0.50278422  0.74381246  0.41718238    -0.03900
C2782       C  0.98455677  0.77940109  0.42198623    -0.01000
C2783       C  0.95075024  0.76628912  0.43565838     0.04000
C2784       C  0.94671755  0.72850406  0.44724722    -0.03900
C2785       C  0.98358796  0.71153479  0.44676243    -0.01000
C2786       C  0.01915452  0.72669708  0.43352091     0.04000
C2787       C  0.47039152  0.79977229  0.40572312     0.38600
C2788       C  0.98427663  0.67667955  0.45925718     0.38600
C2789       C  0.52840843  0.68043010  0.42652821     0.37000
C2790       C  0.92196020  0.79353516  0.43811016     0.37000
N2791       N  0.54703871  0.65494369  0.42378332    -0.37800
N2792       N  0.90027378  0.81658688  0.44004130    -0.37800
N2793       N  0.98655489  0.64844368  0.46869578    -0.37200
N2794       N  0.46992761  0.82643893  0.39530424    -0.37200
C2795       C  0.78742282  0.70609393  0.43984222    -0.03900
C2796       C  0.81065118  0.72468734  0.42367355    -0.01000
C2797       C  0.79364824  0.75188032  0.41329246     0.04000
C2798       C  0.74929581  0.75524135  0.41755286    -0.03900
C2799       C  0.72169817  0.72906844  0.43214782    -0.01000
C2800       C  0.73666647  0.69821532  0.44131803     0.04000
C2801       C  0.84473930  0.70957054  0.41557973     0.38600
C2802       C  0.67518034  0.72969214  0.43731467     0.38600
C2803       C  0.69526545  0.64509404  0.44409776     0.37000
C2804       C  0.82255710  0.77660245  0.39818189     0.37000
N2805       N  0.66078868  0.60253113  0.44504334    -0.37800
N2806       N  0.84561393  0.79597903  0.38615282    -0.37800
N2807       N  0.63897851  0.73180290  0.44160655    -0.37200
N2808       N  0.87051341  0.69736601  0.40821763    -0.37200
loop_ 
_geom_bond_atom_site_label_1 
_geom_bond_atom_site_label_2 
_geom_bond_distance 
_geom_bond_site_symmetry_2 
_ccdc_geom_bond_type 
Zn1           O5   1.941       .  S
Zn1           O6   2.007       .  S
Zn1          O10   1.991       .  S
Zn1          O17   2.025       .  S
Zn2           O5   1.940       .  S
Zn2           O7   2.002       .  S
Zn2           O9   1.996       .  S
Zn2          O13   2.055       .  S
Zn3           O5   1.946       .  S
Zn3           O8   2.017       .  S
Zn3          O11   2.001       .  S
Zn3          O14   2.039       .  S
Zn4           O5   1.902       .  S
Zn4          O12   1.922       .  S
Zn4          O15   1.956       .  S
Zn4          O16   1.922       .  S
O6           C18   1.274       .  A
O7           C19   1.274       .  A
O8           C20   1.273       .  A
O9           C18   1.271       .  A
O10          C20   1.269       .  A
O11          C19   1.272       .  A
O12          C21   1.261       .  A
O13          C22   1.279       .  A
O14          C21   1.276       .  A
O15          C22   1.263       .  A
O16          C23   1.262       .  A
O17          C23   1.274       .  A
C18         C633   1.483       .  S
C19         C650   1.475       .  S
C20         C619   1.490       .  S
C21         C664   1.461       .  S
C22         C692   1.491       .  S
C23         C675   1.454       .  S
Zn24        O730   1.889   1_455  S
Zn24         O29   2.061       .  S
Zn24        O735   1.984       .  S
Zn24       O1444   2.004   1_455  S
Zn25         O28   1.896       .  S
Zn25         O30   1.935       .  S
Zn25        O734   1.934   1_545  S
Zn25       O2142   1.949   1_455  S
Zn26         O28   1.950       .  S
Zn26         O31   1.979       .  S
Zn26         O34   2.046       .  S
Zn26       O1441   2.002       .  S
Zn27       O2134   1.908       .  S
Zn27         O38   2.089       .  S
Zn27         O39   2.053       .  S
Zn27        O737   2.023       .  S
O28        Zn726   1.947   1_545  S
O28       Zn2133   1.949   1_445  S
O29          C41   1.280       .  A
O30          C42   1.261       .  A
O31          C43   1.270       .  A
O32        Zn727   1.959   1_655  S
O32          C41   1.266   1_655  A
O33        Zn726   2.027   1_545  S
O33          C43   1.277       .  A
O34          C42   1.276       .  A
O35        Zn729   1.999   1_545  S
O35          C44   1.275       .  A
O36       Zn2131   1.952       .  S
O36          C45   1.263       .  A
O37       Zn1430   2.007       .  S
O37          C44   1.272       .  A
O38          C45   1.283       .  A
O39          C46   1.281       .  A
O40       Zn1428   1.999       .  S
O40          C46   1.274       .  A
C41         C622   1.485       .  S
C42         C636   1.474       .  S
C43         C605   1.484       .  S
C44         C591   1.488       .  S
C45         C647   1.492       .  S
C46         C577   1.511       .  S
C47          H48   1.109       .  S
C47          C53   1.613       .  S
C47          C52   1.611       .  S
C47          C51   1.613       .  S
C49          H50   1.109       .  S
C49          C55   1.534       .  S
C49          C54   1.535       .  S
C49          C56   1.539       .  S
C51          C54   1.383       .  D
C51         C535   1.566       .  S
C52          C55   1.383       .  D
C52         C549   1.571       .  S
C53          C56   1.387       .  D
C53         C566   1.576       .  S
C54         C510   1.520       .  S
C55         C493   1.512       .  S
C56         C524   1.517       .  S
C57         H760   1.109       .  S
C57        C2169   1.614       .  S
C57         C764   1.614       .  S
C57        C1465   1.614   1_565  S
H58         C759   1.109       .  S
C59          H60   1.109       .  S
C59         C767   1.529       .  S
C59        C1468   1.535   1_565  S
C59        C2172   1.529       .  S
C61        C1461   1.613   1_445  S
C61          C64   1.385       .  D
C61         C563   1.577       .  S
C62         C759   1.613       .  S
C62          C65   1.383       .  D
C62         C552   1.570       .  S
C63        C2163   1.614       .  S
C63          C66   1.380       .  D
C63         C538   1.566       .  S
C64        C1463   1.535   1_445  S
C64         C479   1.510       .  S
C65         C761   1.534       .  S
C65         C454   1.512       .  S
C66        C2165   1.530       .  S
C66         C468   1.511       .  S
C67          H68   1.092       .  S
C67          C73   1.525       .  S
C67          C72   1.523       .  S
C67          C71   1.537       .  S
C69          H70   1.108       .  S
C69          C75   1.611       .  S
C69          C74   1.600       .  S
C69          C76   1.626       .  S
C71          C74   1.367       .  D
C71         C398   1.494       .  S
C72          C75   1.380       .  D
C72         C381   1.511       .  S
C73          C76   1.412       .  D
C73         C367   1.538       .  S
C74         C440   1.565       .  S
C75         C426   1.567       .  S
C76         C409   1.573       .  S
C77          H78   1.108       .  S
C77          C83   1.602       .  S
C77          C82   1.622       .  S
C77          C81   1.614       .  S
C79          H80   1.087       .  S
C79          C85   1.521       .  S
C79          C84   1.519       .  S
C79          C86   1.532       .  S
C81          C84   1.381       .  D
C81         C412   1.560       .  S
C82          C85   1.414       .  D
C82         C437   1.572       .  S
C83          C86   1.363       .  D
C83         C423   1.569       .  S
C84         C661   1.522       .  S
C85         C689   1.535       .  S
C86         C678   1.482       .  S
Zn87         O91   1.937       .  S
Zn87         O92   1.983       .  S
Zn87         O96   1.984       .  S
Zn87        O103   2.010       .  S
Zn88         O91   1.955       .  S
Zn88         O93   1.999       .  S
Zn88         O95   2.034       .  S
Zn88         O99   2.064       .  S
Zn89         O91   1.941       .  S
Zn89         O94   1.996       .  S
Zn89         O97   1.986       .  S
Zn89        O100   2.038       .  S
Zn90         O91   1.896       .  S
Zn90         O98   1.910       .  S
Zn90        O101   1.921       .  S
Zn90        O102   1.924       .  S
O92         C104   1.269       .  A
O93         C105   1.272       .  A
O94         C106   1.271       .  A
O95         C104   1.276       .  A
O96         C106   1.269       .  A
O97         C105   1.272       .  A
O98         C107   1.259       .  A
O99         C108   1.279       .  A
O100        C107   1.274       .  A
O101        C108   1.260       .  A
O102        C109   1.261       .  A
O103        C109   1.274       .  A
C104        C353   1.496       .  S
C105        C339   1.483       .  S
C106        C325   1.482       .  S
C107        C384   1.464       .  S
C108        C395   1.468       .  S
C109        C370   1.461       .  S
Zn110       O114   1.847       .  S
Zn110      O2221   1.946       .  S
Zn110      O1523   1.936   1_455  S
Zn110       O828   1.934       .  S
Zn111      O2220   1.913   1_545  S
Zn111       O118   2.041       .  S
Zn111       O818   1.987   1_545  S
Zn111      O1526   1.975       .  S
Zn112      O1518   1.916       .  S
Zn112       O117   2.039       .  S
Zn112       O120   1.963       .  S
Zn112      O1527   2.008       .  S
Zn113       O816   1.912   1_445  S
Zn113       O124   2.001       .  S
Zn113       O125   2.065       .  S
Zn113       O823   1.978   1_545  S
O114      Zn2217   1.909   1_455  S
O114      Zn1516   1.908   1_455  S
O114       Zn815   1.909       .  S
O115      Zn2216   1.934       .  S
O115        C127   1.263       .  A
O116       Zn813   1.994       .  S
O116        C128   1.272       .  A
O117        C129   1.278       .  A
O118        C127   1.277       .  A
O119      Zn1514   1.922       .  S
O119        C129   1.262       .  A
O120        C128   1.270       .  A
O121       Zn815   1.988       .  S
O121        C130   1.273       .  A
O122      Zn1515   1.978   1_455  S
O122        C131   1.272       .  A
O123      Zn1516   2.016   1_455  S
O123        C130   1.274       .  A
O124        C131   1.273       .  A
O125        C132   1.280       .  A
O126       Zn812   1.953       .  S
O126        C132   1.265       .  A
C127        C328   1.477       .  S
C128        C496   1.471       .  S
C129        C342   1.475       .  S
C130        C507   1.483       .  S
C131        C521   1.476       .  S
C132        C356   1.485       .  S
C133        H134   1.108       .  S
C133        C139   1.629       .  S
C133        C138   1.606       .  S
C133        C137   1.613       .  S
C135        H136   1.092       .  S
C135        C141   1.548       .  S
C135        C140   1.532       .  S
C135        C142   1.529       .  S
C137        C140   1.390       .  D
C137        C314   1.573       .  S
C138        C141   1.367       .  D
C138        C283   1.582       .  S
C139        C142   1.408       .  D
C139        C297   1.572       .  S
C140        C608   1.528       .  S
C141        C594   1.495       .  S
C142        C580   1.548       .  S
C143        H144   1.109   1_565  S
C143        C149   1.616   1_565  S
C143       C1552   1.606   1_465  S
C143       C2253   1.604   1_455  S
C145        H146   1.109       .  S
C145        C152   1.531   1_665  S
C145       C1555   1.538   1_565  S
C145       C2256   1.526       .  S
C147       C2249   1.609       .  S
C147        C150   1.386       .  D
C147        C300   1.566       .  S
C148       C1547   1.610   1_545  S
C148        C151   1.380       .  D
C148        C286   1.578       .  S
C149        C152   1.393       .  D
C149        C311   1.572       .  S
C150       C2251   1.532       .  S
C150        C241   1.516       .  S
C151       C1549   1.539   1_545  S
C151        C258   1.505       .  S
C152        C272   1.518       .  S
Zn153       O157   1.937       .  S
Zn153       O158   1.981       .  S
Zn153       O162   1.999       .  S
Zn153       O169   2.023       .  S
Zn154       O157   1.939       .  S
Zn154       O159   1.990       .  S
Zn154       O161   2.015       .  S
Zn154       O165   2.020       .  S
Zn155       O157   1.935       .  S
Zn155       O160   1.969       .  S
Zn155       O163   2.005       .  S
Zn155       O166   2.017       .  S
Zn156       O157   1.912       .  S
Zn156       O164   1.935       .  S
Zn156       O167   1.922       .  S
Zn156       O168   1.934       .  S
O158        C170   1.270       .  A
O159        C171   1.270       .  A
O160        C172   1.268       .  A
O161        C170   1.273       .  A
O162        C172   1.271       .  A
O163        C171   1.271       .  A
O164        C173   1.262       .  A
O165        C174   1.276       .  A
O166        C173   1.276       .  A
O167        C174   1.261       .  A
O168        C175   1.261       .  A
O169        C175   1.275       .  A
C170        C213   1.489       .  S
C171        C202   1.478       .  S
C172        C227   1.481       .  S
C173        C482   1.469       .  S
C174        C451   1.467       .  S
C175        C465   1.469       .  S
Zn176       O180   1.942       .  S
Zn176       O181   1.986       .  S
Zn176       O185   2.013       .  S
Zn176       O192   2.020       .  S
Zn177       O180   1.935       .  S
Zn177       O182   1.980       .  S
Zn177       O184   1.998       .  S
Zn177       O188   2.027       .  S
Zn178       O180   1.944       .  S
Zn178       O183   1.992       .  S
Zn178       O186   2.005       .  S
Zn178       O189   2.019       .  S
Zn179       O180   1.909       .  S
Zn179       O187   1.919       .  S
Zn179       O190   1.936       .  S
Zn179       O191   1.934       .  S
O181        C193   1.270       .  A
O182        C194   1.269       .  A
O183        C195   1.270       .  A
O184        C193   1.272       .  A
O185        C195   1.273       .  A
O186        C194   1.273       .  A
O187        C196   1.261       .  A
O188        C197   1.276       .  A
O189        C196   1.275       .  A
O190        C197   1.261       .  A
O191        C198   1.262       .  A
O192        C198   1.275       .  A
C193        C230   1.485       .  S
C194        C199   1.477       .  S
C195        C216   1.488   1_554  S
C196        C269   1.471       .  S
C197        C244   1.477       .  S
C198        C255   1.469       .  S
C199        C200   1.419   1_554  A
C199        C204   1.406       .  A
C200        C201   1.406       .  A
C200        C205   1.451       .  S
C201        C202   1.407       .  A
C201        C208   1.452       .  S
C202        C203   1.418       .  A
C203        C204   1.409   1_556  A
C203        C206   1.449       .  S
C204        C207   1.451       .  S
C205        N212   1.156       .  T
C206        N211   1.156       .  T
C207        N209   1.157       .  T
C208        N210   1.157       .  T
C213        C214   1.420       .  A
C213        C218   1.414       .  A
C214        C917   1.410       .  A
C214        C219   1.452       .  S
C215        C216   1.410   1_565  A
C215        C916   1.410       .  A
C215        C222   1.451   1_556  S
C216        C217   1.419       .  A
C217        C920   1.409       .  A
C217        C220   1.451       .  S
C218        C919   1.409       .  A
C218        C221   1.454       .  S
C219        N226   1.157       .  T
C220        N225   1.156       .  T
C221        N223   1.158       .  T
C222        N224   1.157       .  T
C227        C232   1.419       .  A
C227       C1632   1.410   1_455  A
C228        C229   1.406       .  A
C228       C1631   1.410       .  A
C228        C233   1.454       .  S
C229        C230   1.422   1_556  A
C229        C236   1.452       .  S
C230       C1635   1.412   1_554  A
C231        C232   1.408       .  A
C231       C1634   1.410   1_456  A
C231        C234   1.451   1_556  S
C232        C235   1.452       .  S
C233        N240   1.157       .  T
C234        N239   1.157       .  T
C235        N237   1.157       .  T
C236        N238   1.157       .  T
C241        C242   1.425       .  A
C241        C246   1.423       .  A
C242        C243   1.404       .  A
C242        C247   1.437       .  S
C243        C244   1.396       .  A
C243        C250   1.457       .  S
C244        C245   1.411       .  A
C245        C246   1.416       .  A
C245        C248   1.453       .  S
C246        C249   1.447       .  S
C247       N1658   1.154       .  T
C248        N253   1.157       .  T
C249        N251   1.156       .  T
C250        N252   1.157       .  T
N254       C1651   1.154       .  T
C255        C256   1.410       .  A
C255        C260   1.399       .  A
C256        C257   1.409       .  A
C256        C261   1.453       .  S
C257        C258   1.422       .  A
C257       C1668   1.448       .  S
C258        C259   1.421       .  A
C259        C260   1.404       .  A
C259        C964   1.437   1_545  S
C260        C263   1.457       .  S
C261       N1672   1.157       .  T
C262        C961   1.439       .  S
C262        N267   1.154       .  T
C263        N967   1.157   1_545  T
C264       C1661   1.448   1_455  S
C264        N266   1.157       .  T
N265        C965   1.157       .  T
N268       C1665   1.157       .  T
C269        C270   1.410       .  A
C269        C274   1.396       .  A
C270        C271   1.410       .  A
C270        C275   1.455       .  S
C271        C272   1.425       .  A
C271        C278   1.449       .  S
C272        C273   1.430       .  A
C273        C274   1.405       .  A
C273        C276   1.440       .  S
C274        C277   1.459       .  S
C275        N282   1.157       .  T
C276        N281   1.154       .  T
C277        N279   1.157       .  T
C278        N280   1.157   1_545  T
C283        C284   1.419       .  A
C283        C288   1.435       .  A
C284        C285   1.446       .  A
C284        C289   1.447       .  S
C285        C286   1.438       .  A
C285        C994   1.446   1_545  S
C286        C287   1.416       .  A
C287        C288   1.440       .  A
C287       C1694   1.449       .  S
C288        C291   1.442       .  S
C289        N296   1.156       .  T
C290       C1691   1.448   1_455  S
C290        N295   1.157       .  T
C291        N293   1.157       .  T
C292        C987   1.447       .  S
C292        N294   1.157       .  T
C297        C298   1.420       .  A
C297        C302   1.426       .  A
C298        C299   1.439       .  A
C298        C303   1.445       .  S
C299        C300   1.429       .  A
C299        C306   1.446       .  S
C300        C301   1.418       .  A
C301        C302   1.440       .  A
C301        C304   1.449       .  S
C302        C305   1.441       .  S
C303        N310   1.156       .  T
C304        N309   1.157       .  T
C305        N307   1.157       .  T
C306       N1712   1.156       .  T
N308       C1710   1.156       .  T
C311        C312   1.422       .  A
C311        C316   1.437       .  A
C312        C313   1.439       .  A
C312        C317   1.448   1_545  S
C313        C314   1.431       .  A
C313        C320   1.449       .  S
C314        C315   1.421       .  A
C315        C316   1.443       .  A
C315        C318   1.446       .  S
C316        C319   1.448       .  S
C317        N324   1.157       .  T
C318        N323   1.156       .  T
C319        N321   1.157       .  T
C320        N322   1.157   1_545  T
C325        C326   1.410       .  A
C325        C330   1.419       .  A
C326        C327   1.407       .  A
C326        C331   1.451       .  S
C327        C328   1.415       .  A
C327        C334   1.451       .  S
C328        C329   1.411       .  A
C329        C330   1.406       .  A
C329        C332   1.454       .  S
C330        C333   1.450       .  S
C331        N338   1.157       .  T
C332        N337   1.158       .  T
C333        N335   1.156       .  T
C334       N1740   1.157       .  T
N336       C1738   1.156       .  T
C339        C340   1.412       .  A
C339        C344   1.421       .  A
C340        C341   1.409       .  A
C340        C345   1.452       .  S
C341        C342   1.418       .  A
C341        C348   1.453       .  S
C342        C343   1.408       .  A
C343        C344   1.404       .  A
C343        C346   1.455       .  S
C344        C347   1.451       .  S
C345        N352   1.157       .  T
C346        N351   1.158       .  T
C347        N349   1.156       .  T
C348       N1754   1.157       .  T
N350       C1752   1.157       .  T
C353        C354   1.421       .  A
C353        C358   1.419       .  A
C354        C355   1.412       .  A
C354        C359   1.451       .  S
C355        C356   1.411       .  A
C355        C362   1.453       .  S
C356        C357   1.413       .  A
C357        C358   1.411       .  A
C357        C360   1.452   1_545  S
C358        C361   1.452   1_545  S
C359        N366   1.157       .  T
C360        N365   1.157       .  T
C361        N363   1.157       .  T
C362        N364   1.158       .  T
C367        C368   1.438       .  A
C367        C372   1.404       .  A
C368        C369   1.413       .  A
C368        C373   1.445       .  S
C369       C1072   1.402       .  A
C369        C376   1.454       .  S
C370        C371   1.396   1_545  A
C370       C1071   1.407       .  A
C371       C1074   1.402       .  A
C371        C374   1.460       .  S
C372       C1073   1.403       .  A
C372        C375   1.441       .  S
C373        N380   1.158       .  T
C374        N379   1.158       .  T
C375        N377   1.156       .  T
C376        N378   1.158       .  T
C381        C382   1.423       .  A
C381        C386   1.423       .  A
C382        C383   1.409       .  A
C382        C387   1.443       .  S
C383       C1788   1.405       .  A
C383       C1794   1.457   1_455  S
C384       C1787   1.406       .  A
C384       C1789   1.398       .  A
C385        C386   1.404       .  A
C385       C1788   1.398       .  A
C385        C388   1.456       .  S
C386        C389   1.442       .  S
C387        N394   1.156       .  T
C388       N1797   1.157       .  T
C389        N391   1.155       .  T
C390       C1787   1.455       .  S
C390        N392   1.157       .  T
N393       C1792   1.157       .  T
C395        C396   1.408       .  A
C395        C400   1.406       .  A
C396        C397   1.408       .  A
C396        C401   1.454       .  S
C397        C398   1.412       .  A
C397        C404   1.446       .  S
C398        C399   1.415       .  A
C399        C400   1.409       .  A
C399        C402   1.450       .  S
C400        C403   1.452       .  S
C401        N408   1.157       .  T
C402        N407   1.158       .  T
C403        N405   1.157       .  T
C404        N406   1.156       .  T
C409        C410   1.431       .  A
C409        C414   1.416       .  A
C410       C1113   1.437       .  A
C410        C415   1.440       .  S
C411        C412   1.415       .  A
C411       C1112   1.435   1_545  A
C411        C418   1.448       .  S
C412        C413   1.432       .  A
C413       C1116   1.434   1_545  A
C413        C416   1.447       .  S
C414       C1115   1.432       .  A
C414        C417   1.443       .  S
C415        N422   1.156       .  T
C416        N421   1.156       .  T
C417        N419   1.157       .  T
C418        N420   1.157       .  T
C423        C424   1.415       .  A
C423        C428   1.437       .  A
C424       C1829   1.438       .  A
C424        C429   1.447       .  S
C425        C426   1.435       .  A
C425       C1828   1.439   1_455  A
C425        C432   1.446       .  S
C426        C427   1.414       .  A
C427       C1832   1.437   1_455  A
C427        C430   1.452       .  S
C428       C1831   1.436       .  A
C428        C431   1.443       .  S
C429        N436   1.156       .  T
C430        N435   1.157       .  T
C431        N433   1.158       .  T
C432        N434   1.156       .  T
C437        C438   1.417       .  A
C437        C442   1.427       .  A
C438        C439   1.436       .  A
C438        C443   1.443       .  S
C439        C440   1.429       .  A
C439        C446   1.444       .  S
C440        C441   1.416       .  A
C441        C442   1.440       .  A
C441        C444   1.448       .  S
C442        C445   1.439       .  S
C443        N450   1.156       .  T
C444        N449   1.157       .  T
C445        N447   1.156       .  T
C446        N448   1.157       .  T
C451        C452   1.397       .  A
C451        C456   1.409       .  A
C452        C453   1.401       .  A
C452        C457   1.460       .  S
C453        C454   1.422       .  A
C453        C460   1.437       .  S
C454        C455   1.425       .  A
C455        C456   1.413       .  A
C455        C458   1.448       .  S
C456        C459   1.454       .  S
C457        N464   1.158       .  T
C458        N463   1.157       .  T
C459        N461   1.157       .  T
C460        N462   1.153       .  T
C465        C466   1.398       .  A
C465        C470   1.409       .  A
C466        C467   1.403       .  A
C466        C471   1.459       .  S
C467        C468   1.422       .  A
C467        C474   1.438   1_455  S
C468        C469   1.424       .  A
C469        C470   1.414       .  A
C469        C472   1.448       .  S
C470        C473   1.454       .  S
C471        N478   1.157   1_455  T
C472        N477   1.157       .  T
C473        N475   1.158       .  T
C474        N476   1.154       .  T
C479        C480   1.424       .  A
C479        C484   1.425       .  A
C480        C481   1.412       .  A
C480        C485   1.448   1_455  S
C481        C482   1.409       .  A
C481        C488   1.453       .  S
C482        C483   1.399       .  A
C483        C484   1.403       .  A
C483        C486   1.459       .  S
C484        C487   1.440       .  S
C485        N492   1.157       .  T
C486        N491   1.158       .  T
C487        N489   1.154       .  T
C488        N490   1.157       .  T
C493        C494   1.423       .  A
C493        C498   1.426       .  A
C494        C495   1.402       .  A
C494        C499   1.441       .  S
C495        C496   1.400       .  A
C495        C502   1.459       .  S
C496        C497   1.408       .  A
C497        C498   1.413       .  A
C497       C1202   1.453       .  S
C498        C501   1.448       .  S
C499        N506   1.154       .  T
C500       C1199   1.452   1_545  S
C500        N505   1.157       .  T
C501        N503   1.157       .  T
C502        N504   1.158       .  T
C507        C508   1.400       .  A
C507        C512   1.412       .  A
C508        C509   1.405       .  A
C508        C513   1.458       .  S
C509        C510   1.424       .  A
C509        C516   1.439       .  S
C510        C511   1.427       .  A
C511        C512   1.418       .  A
C511        C514   1.448       .  S
C512       C1919   1.452   1_455  S
C513       N1222   1.157       .  T
C514        N519   1.157       .  T
C515       C1916   1.452       .  S
C515        N517   1.157       .  T
C516        N518   1.154       .  T
N520       C1215   1.158       .  T
C521        C522   1.398       .  A
C521        C526   1.410       .  A
C522        C523   1.403       .  A
C522        C527   1.460       .  S
C523        C524   1.425       .  A
C523        C530   1.439       .  S
C524        C525   1.427       .  A
C525        C526   1.416       .  A
C525        C528   1.449       .  S
C526        C529   1.452       .  S
C527        N534   1.157       .  T
C528        N533   1.157       .  T
C529        N531   1.157       .  T
C530        N532   1.154       .  T
C535        C536   1.417       .  A
C535        C540   1.434       .  A
C536        C537   1.438       .  A
C536        C541   1.449       .  S
C537        C538   1.433       .  A
C537        C544   1.445   1_455  S
C538        C539   1.416       .  A
C539        C540   1.440       .  A
C539       C1244   1.448       .  S
C540        C543   1.446       .  S
C541        N548   1.157       .  T
C542       C1241   1.448   1_545  S
C542        N547   1.157       .  T
C543        N545   1.156       .  T
C544       N1950   1.156       .  T
N546       C1948   1.156       .  T
C549        C550   1.418       .  A
C549        C554   1.435       .  A
C550        C551   1.440       .  A
C550        C555   1.449       .  S
C551        C552   1.434       .  A
C551        C558   1.446       .  S
C552        C553   1.418       .  A
C553        C554   1.441       .  A
C553        C556   1.448       .  S
C554        C557   1.447       .  S
C555        N562   1.157       .  T
C556        N561   1.157       .  T
C557        N559   1.157       .  T
C558        N560   1.156       .  T
C563        C564   1.420       .  A
C563        C568   1.437       .  A
C564        C565   1.443       .  A
C564       C1973   1.448   1_455  S
C565        C566   1.434       .  A
C565        C572   1.447       .  S
C566        C567   1.419       .  A
C567        C568   1.443       .  A
C567        C570   1.449       .  S
C568        C571   1.447       .  S
C569       C1968   1.448       .  S
C569        N576   1.157       .  T
C570        N575   1.157       .  T
C571        N573   1.157       .  T
C572        N574   1.157   1_455  T
C577        C578   1.419       .  A
C577        C582   1.417       .  A
C578        C579   1.423       .  A
C578        C583   1.453       .  S
C579        C580   1.418       .  A
C579        C586   1.438       .  S
C580        C581   1.426       .  A
C581        C582   1.407       .  A
C581        C584   1.448       .  S
C582        C585   1.455       .  S
C583        N590   1.158       .  T
C584        N589   1.158       .  T
C585        N587   1.158       .  T
C586        N588   1.154       .  T
C591        C592   1.413       .  A
C591        C596   1.412       .  A
C592        C593   1.404       .  A
C592        C597   1.449       .  S
C593        C594   1.411       .  A
C593        C600   1.449       .  S
C594        C595   1.414       .  A
C595        C596   1.411       .  A
C595        C598   1.451       .  S
C596        C599   1.450       .  S
C597        N604   1.156   1_545  T
C598        N603   1.158       .  T
C599       N2005   1.157       .  T
C600        N602   1.157   1_545  T
N601       C2003   1.157       .  T
C605        C606   1.399       .  A
C605        C610   1.412       .  A
C606        C607   1.411       .  A
C606        C611   1.455       .  S
C607        C608   1.431       .  A
C607        C614   1.444       .  S
C608        C609   1.426       .  A
C609        C610   1.413       .  A
C609        C612   1.446       .  S
C610        C613   1.456       .  S
C611        N618   1.157       .  T
C612        N617   1.157       .  T
C613        N615   1.157       .  T
C614        N616   1.155       .  T
C619        C620   1.417       .  A
C619        C624   1.416       .  A
C620        C621   1.408       .  A
C620        C625   1.453       .  S
C621        C622   1.412       .  A
C621       C1330   1.452       .  S
C622        C623   1.415       .  A
C623        C624   1.413       .  A
C623        C626   1.452   1_455  S
C624        C627   1.452   1_455  S
C625       N1334   1.157       .  T
C626       N2035   1.157       .  T
C627        N629   1.157       .  T
C628       C1323   1.451       .  S
C628        N630   1.157       .  T
N631       C2030   1.157       .  T
N632       C1327   1.156       .  T
C633        C634   1.413       .  A
C633        C638   1.418       .  A
C634        C635   1.409       .  A
C634        C639   1.452       .  S
C635        C636   1.415       .  A
C635        C642   1.452       .  S
C636        C637   1.409       .  A
C637        C638   1.407       .  A
C637       C2044   1.453       .  S
C638        C641   1.451       .  S
C639        N646   1.157       .  T
C640       C2041   1.453       .  S
C640        N645   1.157       .  T
C641        N643   1.157       .  T
C642        N644   1.157       .  T
C647        C648   1.428       .  A
C647        C652   1.412       .  A
C648        C649   1.407       .  A
C648        C653   1.454       .  S
C649        C650   1.402       .  A
C649        C656   1.453       .  S
C650        C651   1.416       .  A
C651        C652   1.411       .  A
C651        C654   1.452       .  S
C652        C655   1.451       .  S
C653        N660   1.158       .  T
C654        N659   1.157       .  T
C655        N657   1.158       .  T
C656        N658   1.157       .  T
C661        C662   1.424       .  A
C661        C666   1.426       .  A
C662       C1365   1.412   1_545  A
C662        C667   1.441       .  S
C663        C664   1.406       .  A
C663       C1364   1.408       .  A
C663        C670   1.454       .  S
C664       C1367   1.398       .  A
C665        C666   1.407       .  A
C665       C1366   1.395   1_545  A
C665        C668   1.457       .  S
C666        C669   1.437       .  S
C667        N674   1.155       .  T
C668        N673   1.157       .  T
C669        N671   1.153       .  T
C670        N672   1.157       .  T
C675       C2080   1.406   1_455  A
C675       C2084   1.404       .  A
C676        C677   1.405       .  A
C676       C2079   1.405       .  A
C676       C2085   1.451       .  S
C677        C678   1.415       .  A
C677        C684   1.451       .  S
C678        C679   1.406       .  A
C679        C680   1.401       .  A
C679        C682   1.449       .  S
C680       C2079   1.404       .  A
C680       C2087   1.452       .  S
C681       C2080   1.452       .  S
C681        N688   1.157   1_655  T
C682        N687   1.157       .  T
C683       C2084   1.451       .  S
C683        N685   1.157       .  T
C684        N686   1.158       .  T
C689        C690   1.439       .  A
C689        C694   1.398       .  A
C690        C691   1.410       .  A
C690        C695   1.448       .  S
C691        C692   1.405       .  A
C691        C698   1.454       .  S
C692        C693   1.417       .  A
C693        C694   1.402       .  A
C693        C696   1.444       .  S
C694        C697   1.444       .  S
C695        N702   1.158       .  T
C696        N701   1.155       .  T
C697        N699   1.157       .  T
C698        N700   1.158       .  T
Zn703       O707   1.952       .  S
Zn703       O708   2.007       .  S
Zn703       O712   2.008       .  S
Zn703       O719   2.034       .  S
Zn704       O707   1.937       .  S
Zn704       O709   2.035       .  S
Zn704       O711   2.002       .  S
Zn704       O715   2.091       .  S
Zn705       O707   1.943       .  S
Zn705       O710   2.010       .  S
Zn705       O713   1.990       .  S
Zn705       O716   2.045       .  S
Zn706       O707   1.895       .  S
Zn706       O714   1.927       .  S
Zn706       O717   1.953       .  S
Zn706       O718   1.928       .  S
O708        C720   1.274       .  A
O709        C721   1.279       .  A
O710        C722   1.273       .  A
O711        C720   1.273       .  A
O712        C722   1.269       .  A
O713        C721   1.270       .  A
O714        C723   1.263       .  A
O715        C724   1.283       .  A
O716        C723   1.277       .  A
O717        C724   1.262       .  A
O718        C725   1.262       .  A
O719        C725   1.275       .  A
C720       C1335   1.490       .  S
C721       C1352   1.494       .  S
C722       C1321   1.478       .  S
C723       C1366   1.465       .  S
C724       C1394   1.517       .  S
C725       C1377   1.462       .  S
Zn726       O731   2.080       .  S
Zn726      O2146   2.004   1_455  S
Zn727       O730   1.837   1_455  S
Zn727       O732   1.958       .  S
Zn727      O1440   1.952   1_455  S
Zn728       O730   1.917   1_455  S
Zn728       O733   1.979       .  S
Zn728       O736   2.063       .  S
Zn728      O2143   2.002   1_455  S
Zn729      O1432   1.937   1_565  S
Zn729       O740   2.050       .  S
Zn729       O741   2.036       .  S
O730      Zn1431   1.909       .  S
O731        C743   1.281       .  A
O732        C744   1.262       .  A
O733        C745   1.273       .  A
O734        C743   1.262       .  A
O735        C745   1.274       .  A
O736        C744   1.278       .  A
O737        C746   1.279       .  A
O738      Zn1429   1.954       .  S
O738        C747   1.264   1_545  A
O739      Zn2132   1.998       .  S
O739        C746   1.274       .  A
O740        C747   1.278       .  A
O741        C748   1.275       .  A
O742      Zn2130   1.990       .  S
O742        C748   1.270       .  A
C743       C1324   1.492       .  S
C744       C1338   1.483       .  S
C745       C1307   1.470       .  S
C746       C1293   1.490       .  S
C747       C1349   1.474       .  S
C748       C1279   1.506       .  S
C749        H750   1.109       .  S
C749        C755   1.605       .  S
C749        C754   1.611       .  S
C749        C753   1.611       .  S
C751        H752   1.110       .  S
C751        C757   1.533       .  S
C751        C756   1.533       .  S
C751        C758   1.538       .  S
C753        C756   1.382       .  D
C753       C1237   1.565       .  S
C754        C757   1.388       .  D
C754       C1251   1.568       .  S
C755        C758   1.381       .  D
C755       C1268   1.572       .  S
C756       C1212   1.516       .  S
C757       C1195   1.517       .  S
C758       C1226   1.504       .  S
C759       C1467   1.615       .  S
C759       C2167   1.612       .  S
C761        H762   1.110       .  S
C761       C2170   1.535       .  S
C761       C1470   1.531       .  S
C763       C2163   1.610       .  S
C763        C766   1.382       .  D
C763       C1265   1.572       .  S
C764        C767   1.385       .  D
C764       C1254   1.569       .  S
C765       C1461   1.611   1_455  S
C765        C768   1.377       .  D
C765       C1240   1.568       .  S
C766       C2165   1.536       .  S
C766       C1181   1.508       .  S
C767       C1156   1.512       .  S
C768       C1463   1.527   1_455  S
C768       C1170   1.502       .  S
C769        H770   1.105       .  S
C769        C775   1.516       .  S
C769        C774   1.539       .  S
C769        C773   1.535       .  S
C771        H772   1.109       .  S
C771        C777   1.612       .  S
C771        C776   1.601       .  S
C771        C778   1.612       .  S
C773        C776   1.375       .  D
C773       C1100   1.497       .  S
C774        C777   1.390       .  D
C774       C1083   1.517       .  S
C775        C778   1.381       .  D
C775       C1069   1.505       .  S
C776       C1142   1.563       .  S
C777       C1128   1.575       .  S
C778       C1111   1.557       .  S
C779        H780   1.109       .  S
C779        C785   1.611       .  S
C779        C784   1.628       .  S
C779        C783   1.613       .  S
C781        H782   1.084       .  S
C781        C787   1.537       .  S
C781        C786   1.513       .  S
C781        C788   1.519       .  S
C783        C786   1.377       .  D
C783       C1114   1.561       .  S
C784        C787   1.417       .  D
C784       C1139   1.575       .  S
C785        C788   1.368       .  D
C785       C1125   1.571       .  S
C786       C1363   1.502       .  S
C787       C1391   1.558       .  S
C788       C1380   1.492       .  S
Zn789       O793   1.935       .  S
Zn789       O794   1.992       .  S
Zn789       O798   1.997       .  S
Zn789       O805   2.034       .  S
Zn790       O793   1.942       .  S
Zn790       O795   1.970       .  S
Zn790       O797   2.004       .  S
Zn790       O801   2.015       .  S
Zn791       O793   1.942       .  S
Zn791       O796   1.998       .  S
Zn791       O799   2.000       .  S
Zn791       O802   2.012       .  S
Zn792       O793   1.908       .  S
Zn792       O800   1.937       .  S
Zn792       O803   1.938       .  S
Zn792       O804   1.954       .  S
O794        C806   1.271       .  A
O795        C807   1.267       .  A
O796        C808   1.271       .  A
O797        C806   1.273       .  A
O798        C808   1.272       .  A
O799        C807   1.270       .  A
O800        C809   1.262       .  A
O801        C810   1.273       .  A
O802        C809   1.275       .  A
O803        C810   1.263       .  A
O804        C811   1.265       .  A
O805        C811   1.277       .  A
C806       C1055   1.486       .  S
C807       C1041   1.478       .  S
C808       C1027   1.485       .  S
C809       C1086   1.466       .  S
C810       C1097   1.456       .  S
C811       C1072   1.478       .  S
Zn812       O816   1.857   1_445  S
Zn812      O1519   1.943       .  S
Zn812      O2225   1.942   1_445  S
Zn813      O1518   1.919       .  S
Zn813       O820   2.049       .  S
Zn813      O2228   1.958       .  S
Zn814      O2220   1.920       .  S
Zn814       O819   2.038       .  S
Zn814       O822   1.980       .  S
Zn814      O2229   2.000       .  S
Zn815       O826   1.982       .  S
Zn815       O827   2.048       .  S
O816      Zn1515   1.909   1_565  S
O816      Zn2218   1.917       .  S
O817      Zn1514   1.936       .  S
O817        C829   1.262       .  A
O818        C830   1.271       .  A
O819        C831   1.277       .  A
O820        C829   1.276       .  A
O821      Zn2216   1.937   1_565  S
O821        C831   1.263       .  A
O822        C830   1.272       .  A
O823        C832   1.273       .  A
O824      Zn2217   1.957   1_455  S
O824        C833   1.271       .  A
O825      Zn2218   2.009   1_455  S
O825        C832   1.274       .  A
O826        C833   1.271       .  A
O827        C834   1.277       .  A
O828        C834   1.264       .  A
C829       C1030   1.482       .  S
C830       C1198   1.471       .  S
C831       C1044   1.474       .  S
C832       C1209   1.484       .  S
C833       C1223   1.464       .  S
C834       C1058   1.479       .  S
C835        H836   1.108       .  S
C835        C841   1.626       .  S
C835        C840   1.604       .  S
C835        C839   1.613       .  S
C837        H838   1.093       .  S
C837        C843   1.545       .  S
C837        C842   1.527       .  S
C837        C844   1.526       .  S
C839        C842   1.386       .  D
C839       C1016   1.575       .  S
C840        C843   1.369       .  D
C840        C985   1.579       .  S
C841        C844   1.406       .  D
C841        C999   1.560       .  S
C842       C1310   1.513       .  S
C843       C1296   1.494       .  S
C844       C1282   1.547       .  S
C845        H846   1.109       .  S
C845        C851   1.612   1_655  S
C845       C2254   1.613       .  S
C845       C1551   1.610       .  S
C847        H848   1.110       .  S
C847       C2257   1.534       .  S
C847       C1554   1.531       .  S
C847        C854   1.535   1_655  S
C849       C1547   1.607       .  S
C849        C852   1.382       .  D
C849       C1002   1.557       .  S
C850       C2249   1.613       .  S
C850        C853   1.382       .  D
C850        C988   1.577       .  S
C851        C854   1.387       .  D
C851       C1013   1.574       .  S
C852       C1549   1.526       .  S
C852        C943   1.511       .  S
C853       C2251   1.534       .  S
C853        C960   1.507       .  S
C854        C974   1.513       .  S
Zn855       O859   1.935       .  S
Zn855       O860   1.973       .  S
Zn855       O864   1.984       .  S
Zn855       O871   2.002       .  S
Zn856       O859   1.929       .  S
Zn856       O861   1.966       .  S
Zn856       O863   2.005       .  S
Zn856       O867   2.014       .  S
Zn857       O859   1.946       .  S
Zn857       O862   2.000       .  S
Zn857       O865   2.005       .  S
Zn857       O868   2.032       .  S
Zn858       O859   1.903       .  S
Zn858       O866   1.902       .  S
Zn858       O869   1.923       .  S
Zn858       O870   1.913       .  S
O860        C872   1.269       .  A
O861        C873   1.269       .  A
O862        C874   1.273       .  A
O863        C872   1.271       .  A
O864        C874   1.268       .  A
O865        C873   1.272       .  A
O866        C875   1.258       .  A
O867        C876   1.274       .  A
O868        C875   1.276       .  A
O869        C876   1.259       .  A
O870        C877   1.259       .  A
O871        C877   1.273       .  A
C872        C915   1.486       .  S
C873        C904   1.482       .  S
C874        C929   1.477       .  S
C875       C1184   1.461       .  S
C876       C1153   1.465       .  S
C877       C1167   1.456       .  S
Zn878       O882   1.944       .  S
Zn878       O883   2.001       .  S
Zn878       O887   1.999       .  S
Zn878       O894   2.043       .  S
Zn879       O882   1.951       .  S
Zn879       O884   2.010       .  S
Zn879       O886   1.993       .  S
Zn879       O890   2.044       .  S
Zn880       O882   1.941       .  S
Zn880       O885   1.995       .  S
Zn880       O888   1.985       .  S
Zn880       O891   2.022       .  S
Zn881       O882   1.893       .  S
Zn881       O889   1.904       .  S
Zn881       O892   1.904       .  S
Zn881       O893   1.897       .  S
O883        C895   1.273       .  A
O884        C896   1.274       .  A
O885        C897   1.270       .  A
O886        C895   1.271       .  A
O887        C897   1.272       .  A
O888        C896   1.270       .  A
O889        C898   1.257       .  A
O890        C899   1.276       .  A
O891        C898   1.275       .  A
O892        C899   1.257       .  A
O893        C900   1.257       .  A
O894        C900   1.277       .  A
C895        C932   1.477   1_554  S
C896        C901   1.480       .  S
C897        C918   1.486       .  S
C898        C971   1.464       .  S
C899        C946   1.466       .  S
C900        C957   1.463       .  S
C901        C902   1.417   1_554  A
C901        C906   1.411   1_554  A
C902        C903   1.405       .  A
C902        C907   1.450       .  S
C903        C904   1.411       .  A
C903        C910   1.454       .  S
C904        C905   1.418       .  A
C905        C906   1.409       .  A
C905        C908   1.453       .  S
C906        C909   1.449   1_556  S
C907        N914   1.156       .  T
C908        N913   1.158       .  T
C909        N911   1.156       .  T
C910        N912   1.157       .  T
C915        C916   1.420       .  A
C915        C920   1.413   1_565  A
C916        C921   1.452       .  S
C917        C918   1.411   1_556  A
C917        C924   1.452   1_556  S
C918        C919   1.419   1_554  A
C919        C922   1.453       .  S
C920        C923   1.454       .  S
C921        N928   1.157       .  T
C922        N927   1.157       .  T
C923        N925   1.158       .  T
C924        N926   1.157       .  T
C929       C2334   1.404   1_455  A
C929        C934   1.420       .  A
C930       C2333   1.405       .  A
C930        C931   1.404       .  A
C930        C935   1.453       .  S
C931        C932   1.417       .  A
C931        C938   1.449       .  S
C932       C2337   1.408       .  A
C933       C2336   1.408   1_456  A
C933        C934   1.411       .  A
C933        C936   1.450   1_556  S
C934        C937   1.451       .  S
C935        N942   1.157       .  T
C936        N941   1.157       .  T
C937        N939   1.157       .  T
C938        N940   1.156       .  T
C943        C944   1.425       .  A
C943        C948   1.419       .  A
C944        C945   1.407       .  A
C944        C949   1.438       .  S
C945        C946   1.395       .  A
C945        C952   1.457       .  S
C946        C947   1.408       .  A
C947        C948   1.413       .  A
C947        C950   1.455       .  S
C948        C951   1.445       .  S
C949       N2360   1.155       .  T
C950        N955   1.157       .  T
C951        N953   1.156       .  T
C952        N954   1.157       .  T
N956       C2353   1.155       .  T
C957        C958   1.409       .  A
C957        C962   1.395       .  A
C958        C959   1.409       .  A
C958        C963   1.455       .  S
C959        C960   1.423       .  A
C959       C2370   1.448       .  S
C960        C961   1.425       .  A
C961        C962   1.405       .  A
C962        C965   1.457       .  S
C963       N2374   1.157       .  T
C964        N969   1.153       .  T
C966       C2363   1.448       .  S
C966        N968   1.156   1_655  T
N970       C2367   1.157       .  T
C971        C972   1.408       .  A
C971        C976   1.392       .  A
C972        C973   1.411       .  A
C972        C977   1.455       .  S
C973        C974   1.426       .  A
C973        C980   1.448       .  S
C974        C975   1.427       .  A
C975        C976   1.402       .  A
C975        C978   1.437       .  S
C976        C979   1.457       .  S
C977        N984   1.157       .  T
C978        N983   1.154       .  T
C979        N981   1.156       .  T
C980        N982   1.157       .  T
C985        C986   1.418       .  A
C985        C990   1.434       .  A
C986        C987   1.446       .  A
C986        C991   1.447       .  S
C987        C988   1.438       .  A
C988        C989   1.417       .  A
C989        C990   1.439       .  A
C989       C2396   1.449       .  S
C990        C993   1.443       .  S
C991        N998   1.157       .  T
C992       C2393   1.449   1_455  S
C992        N997   1.157       .  T
C993        N995   1.157       .  T
C994        N996   1.156       .  T
C999       C1000   1.418       .  A
C999       C1004   1.423       .  A
C1000      C1001   1.433       .  A
C1000      C1005   1.445       .  S
C1001      C1002   1.425       .  A
C1001      C1008   1.446       .  S
C1002      C1003   1.417       .  A
C1003      C1004   1.437       .  A
C1003      C1006   1.447       .  S
C1004      C1007   1.443       .  S
C1005      N1012   1.157       .  T
C1006      N1011   1.156       .  T
C1007      N1009   1.157       .  T
C1008      N2414   1.156       .  T
N1010      C2412   1.156       .  T
C1013      C1014   1.420       .  A
C1013      C1018   1.436       .  A
C1014      C1015   1.440       .  A
C1014      C1019   1.448       .  S
C1015      C1016   1.433       .  A
C1015      C1022   1.448       .  S
C1016      C1017   1.421       .  A
C1017      C1018   1.443       .  A
C1017      C1020   1.448       .  S
C1018      C1021   1.448       .  S
C1019      N1026   1.157       .  T
C1020      N1025   1.157       .  T
C1021      N1023   1.157       .  T
C1022      N1024   1.157       .  T
C1027      C1028   1.411       .  A
C1027      C1032   1.420       .  A
C1028      C1029   1.409       .  A
C1028      C1033   1.451       .  S
C1029      C1030   1.417       .  A
C1029      C1036   1.453       .  S
C1030      C1031   1.411       .  A
C1031      C1032   1.408       .  A
C1031      C1034   1.453       .  S
C1032      C1035   1.452       .  S
C1033      N1040   1.157       .  T
C1034      N1039   1.158       .  T
C1035      N1037   1.157       .  T
C1036      N2442   1.157       .  T
N1038      C2440   1.157       .  T
C1041      C1042   1.412       .  A
C1041      C1046   1.417       .  A
C1042      C1043   1.406       .  A
C1042      C1047   1.452       .  S
C1043      C1044   1.414       .  A
C1043      C1050   1.452       .  S
C1044      C1045   1.410       .  A
C1045      C1046   1.406       .  A
C1045      C1048   1.453       .  S
C1046      C1049   1.452       .  S
C1047      N1054   1.157       .  T
C1048      N1053   1.157       .  T
C1049      N1051   1.157       .  T
C1050      N2456   1.157       .  T
N1052      C2454   1.157       .  T
C1055      C1056   1.420       .  A
C1055      C1060   1.413       .  A
C1056      C1057   1.409       .  A
C1056      C1061   1.452       .  S
C1057      C1058   1.412       .  A
C1057      C1064   1.454       .  S
C1058      C1059   1.415       .  A
C1059      C1060   1.408       .  A
C1059      C1062   1.452       .  S
C1060      C1063   1.452       .  S
C1061      N1068   1.157       .  T
C1062      N1067   1.157       .  T
C1063      N1065   1.157       .  T
C1064      N1066   1.158       .  T
C1069      C1070   1.418       .  A
C1069      C1074   1.426       .  A
C1070      C1071   1.409   1_565  A
C1070      C1075   1.445       .  S
C1071      C1078   1.454       .  S
C1072      C1073   1.407       .  A
C1073      C1076   1.446       .  S
C1074      C1077   1.439       .  S
C1075      N1082   1.156       .  T
C1076      N1081   1.154       .  T
C1077      N1079   1.155       .  T
C1078      N1080   1.157       .  T
C1083      C1084   1.427       .  A
C1083      C1088   1.428       .  A
C1084      C1085   1.406   1_455  A
C1084      C1089   1.450       .  S
C1085      C2490   1.407       .  A
C1085      C2496   1.455       .  S
C1086      C2489   1.407       .  A
C1086      C2491   1.397       .  A
C1087      C2490   1.397   1_455  A
C1087      C1088   1.403       .  A
C1087      C1090   1.456       .  S
C1088      C1091   1.440       .  S
C1089      N1096   1.157       .  T
C1090      N2499   1.157       .  T
C1091      N1093   1.155       .  T
C1092      C2489   1.455       .  S
C1092      N1094   1.158       .  T
N1095      C2494   1.157       .  T
C1097      C1098   1.397       .  A
C1097      C1102   1.400       .  A
C1098      C1099   1.403       .  A
C1098      C1103   1.451       .  S
C1099      C1100   1.417       .  A
C1099      C1106   1.441       .  S
C1100      C1101   1.422       .  A
C1101      C1102   1.408       .  A
C1101      C1104   1.441       .  S
C1102      C1105   1.455       .  S
C1103      N1110   1.157       .  T
C1104      N1109   1.155       .  T
C1105      N1107   1.158       .  T
C1106      N1108   1.155       .  T
C1111      C1112   1.431       .  A
C1111      C1116   1.415       .  A
C1112      C1117   1.445       .  S
C1113      C1114   1.409       .  A
C1113      C1120   1.444       .  S
C1114      C1115   1.424       .  A
C1115      C1118   1.443       .  S
C1116      C1119   1.449       .  S
C1117      N1124   1.156       .  T
C1118      N1123   1.156       .  T
C1119      N1121   1.157       .  T
C1120      N1122   1.157       .  T
C1125      C1126   1.417       .  A
C1125      C1130   1.435       .  A
C1126      C2531   1.443       .  A
C1126      C1131   1.450       .  S
C1127      C2530   1.443   1_455  A
C1127      C1128   1.443       .  A
C1127      C1134   1.446       .  S
C1128      C1129   1.418       .  A
C1129      C2534   1.436   1_455  A
C1129      C1132   1.450       .  S
C1130      C2533   1.438       .  A
C1130      C1133   1.447       .  S
C1131      N1138   1.157       .  T
C1132      N1137   1.157       .  T
C1133      N1135   1.157       .  T
C1134      N1136   1.157       .  T
C1139      C1140   1.421       .  A
C1139      C1144   1.427       .  A
C1140      C1141   1.441       .  A
C1140      C1145   1.444       .  S
C1141      C1142   1.429       .  A
C1141      C1148   1.443       .  S
C1142      C1143   1.411       .  A
C1143      C1144   1.435       .  A
C1143      C1146   1.448       .  S
C1144      C1147   1.440       .  S
C1145      N1152   1.156       .  T
C1146      N1151   1.157       .  T
C1147      N1149   1.156       .  T
C1148      N1150   1.156       .  T
C1153      C1154   1.397       .  A
C1153      C1158   1.408       .  A
C1154      C1155   1.401       .  A
C1154      C1159   1.460       .  S
C1155      C1156   1.425       .  A
C1155      C1162   1.440   1_565  S
C1156      C1157   1.425       .  A
C1157      C1158   1.413       .  A
C1157      C1160   1.448       .  S
C1158      C1161   1.454       .  S
C1159      N1166   1.158       .  T
C1160      N1165   1.157       .  T
C1161      N1163   1.158       .  T
C1162      N1164   1.154       .  T
C1167      C1168   1.397       .  A
C1167      C1172   1.406       .  A
C1168      C1169   1.400       .  A
C1168      C1173   1.459       .  S
C1169      C1170   1.422       .  A
C1169      C1176   1.440   1_455  S
C1170      C1171   1.423       .  A
C1171      C1172   1.408       .  A
C1171      C1174   1.446   1_565  S
C1172      C1175   1.454       .  S
C1173      N1180   1.158   1_455  T
C1174      N1179   1.156       .  T
C1175      N1177   1.157       .  T
C1176      N1178   1.154       .  T
C1181      C1182   1.425       .  A
C1181      C1186   1.422       .  A
C1182      C1183   1.412       .  A
C1182      C1187   1.446   1_455  S
C1183      C1184   1.407       .  A
C1183      C1190   1.455       .  S
C1184      C1185   1.398       .  A
C1185      C1186   1.403       .  A
C1185      C1188   1.458       .  S
C1186      C1189   1.440       .  S
C1187      N1194   1.157       .  T
C1188      N1193   1.157       .  T
C1189      N1191   1.154       .  T
C1190      N1192   1.158       .  T
C1195      C1196   1.427       .  A
C1195      C1200   1.425       .  A
C1196      C1197   1.404       .  A
C1196      C1201   1.439       .  S
C1197      C1198   1.397       .  A
C1197      C1204   1.460       .  S
C1198      C1199   1.409       .  A
C1199      C1200   1.412       .  A
C1200      C1203   1.449       .  S
C1201      N1208   1.154       .  T
C1202      N1207   1.157       .  T
C1203      N1205   1.157       .  T
C1204      N1206   1.158       .  T
C1209      C1210   1.403       .  A
C1209      C1214   1.413       .  A
C1210      C1211   1.405       .  A
C1210      C1215   1.459       .  S
C1211      C1212   1.422       .  A
C1211      C1218   1.439       .  S
C1212      C1213   1.423       .  A
C1213      C1214   1.417       .  A
C1213      C1216   1.449       .  S
C1214      C2621   1.453   1_455  S
C1216      N1221   1.157   1_455  T
C1217      C2618   1.453       .  S
C1217      N1219   1.157       .  T
C1218      N1220   1.154       .  T
C1223      C1224   1.398       .  A
C1223      C1228   1.408       .  A
C1224      C1225   1.397       .  A
C1224      C1229   1.459       .  S
C1225      C1226   1.420       .  A
C1225      C1232   1.439       .  S
C1226      C1227   1.426       .  A
C1227      C1228   1.411       .  A
C1227      C1230   1.448       .  S
C1228      C1231   1.453       .  S
C1229      N1236   1.157       .  T
C1230      N1235   1.157       .  T
C1231      N1233   1.157       .  T
C1232      N1234   1.154       .  T
C1237      C1238   1.416       .  A
C1237      C1242   1.432       .  A
C1238      C1239   1.438       .  A
C1238      C1243   1.450       .  S
C1239      C1240   1.434       .  A
C1239      C1246   1.446   1_455  S
C1240      C1241   1.417       .  A
C1241      C1242   1.440       .  A
C1242      C1245   1.446       .  S
C1243      N1250   1.157       .  T
C1244      N1249   1.157       .  T
C1245      N1247   1.157   1_565  T
C1246      N2652   1.156       .  T
N1248      C2650   1.156       .  T
C1251      C1252   1.418       .  A
C1251      C1256   1.434       .  A
C1252      C1253   1.439       .  A
C1252      C1257   1.449       .  S
C1253      C1254   1.435       .  A
C1253      C1260   1.447       .  S
C1254      C1255   1.418       .  A
C1255      C1256   1.440       .  A
C1255      C1258   1.449       .  S
C1256      C1259   1.448       .  S
C1257      N1264   1.157       .  T
C1258      N1263   1.157       .  T
C1259      N1261   1.157       .  T
C1260      N1262   1.157   1_565  T
C1265      C1266   1.418       .  A
C1265      C1270   1.433       .  A
C1266      C1267   1.441       .  A
C1266      C2675   1.448   1_455  S
C1267      C1268   1.434       .  A
C1267      C1274   1.447       .  S
C1268      C1269   1.419       .  A
C1269      C1270   1.441       .  A
C1269      C1272   1.448       .  S
C1270      C1273   1.446       .  S
C1271      C2670   1.448       .  S
C1271      N1278   1.156       .  T
C1272      N1277   1.157       .  T
C1273      N1275   1.156       .  T
C1274      N1276   1.157   1_455  T
C1279      C1280   1.419       .  A
C1279      C1284   1.416       .  A
C1280      C1281   1.424       .  A
C1280      C1285   1.454       .  S
C1281      C1282   1.420       .  A
C1281      C1288   1.439       .  S
C1282      C1283   1.421       .  A
C1283      C1284   1.403       .  A
C1283      C1286   1.448       .  S
C1284      C1287   1.454       .  S
C1285      N1292   1.158       .  T
C1286      N1291   1.158       .  T
C1287      N1289   1.158       .  T
C1288      N1290   1.155       .  T
C1293      C1294   1.415       .  A
C1293      C1298   1.414       .  A
C1294      C1295   1.406       .  A
C1294      C1299   1.448       .  S
C1295      C1296   1.410       .  A
C1295      C1302   1.451       .  S
C1296      C1297   1.412       .  A
C1297      C1298   1.409       .  A
C1297      C1300   1.450       .  S
C1298      C1301   1.451       .  S
C1299      N1306   1.156       .  T
C1300      N1305   1.158       .  T
C1301      N2707   1.157       .  T
C1302      N1304   1.157       .  T
N1303      C2705   1.157   1_455  T
C1307      C1308   1.399       .  A
C1307      C1312   1.410       .  A
C1308      C1309   1.403       .  A
C1308      C1313   1.456       .  S
C1309      C1310   1.425       .  A
C1309      C1316   1.443       .  S
C1310      C1311   1.423       .  A
C1311      C1312   1.409       .  A
C1311      C1314   1.446       .  S
C1312      C1315   1.456       .  S
C1313      N1320   1.157       .  T
C1314      N1319   1.157       .  T
C1315      N1317   1.158       .  T
C1316      N1318   1.155       .  T
C1321      C1322   1.413       .  A
C1321      C1326   1.402       .  A
C1322      C1323   1.410       .  A
C1322      C1327   1.449       .  S
C1323      C1324   1.412       .  A
C1324      C1325   1.426       .  A
C1325      C1326   1.411       .  A
C1325      C1328   1.452   1_455  S
C1326      C1329   1.451   1_455  S
C1328      N2737   1.157       .  T
C1329      N1331   1.157       .  T
C1330      N1332   1.157       .  T
N1333      C2732   1.157       .  T
C1335      C1336   1.415       .  A
C1335      C1340   1.420       .  A
C1336      C1337   1.411       .  A
C1336      C1341   1.452       .  S
C1337      C1338   1.415       .  A
C1337      C1344   1.451       .  S
C1338      C1339   1.411       .  A
C1339      C1340   1.409       .  A
C1339      C2746   1.453       .  S
C1340      C1343   1.452       .  S
C1341      N1348   1.157       .  T
C1342      C2743   1.454       .  S
C1342      N1347   1.157       .  T
C1343      N1345   1.157       .  T
C1344      N1346   1.157       .  T
C1349      C1350   1.411       .  A
C1349      C1354   1.407       .  A
C1350      C1351   1.414       .  A
C1350      C1355   1.451   1_565  S
C1351      C1352   1.420       .  A
C1351      C1358   1.451   1_565  S
C1352      C1353   1.420       .  A
C1353      C1354   1.407       .  A
C1353      C1356   1.450       .  S
C1354      C1357   1.454       .  S
C1355      N1362   1.158       .  T
C1356      N1361   1.156       .  T
C1357      N1359   1.157       .  T
C1358      N1360   1.158       .  T
C1363      C1364   1.416       .  A
C1363      C1368   1.419       .  A
C1364      C1369   1.439       .  S
C1365      C1366   1.405       .  A
C1365      C1372   1.456       .  S
C1367      C1368   1.405       .  A
C1367      C1370   1.455       .  S
C1368      C1371   1.438       .  S
C1369      N1376   1.153       .  T
C1370      N1375   1.157       .  T
C1371      N1373   1.155       .  T
C1372      N1374   1.158       .  T
C1377      C2782   1.404   1_455  A
C1377      C2786   1.410       .  A
C1378      C2781   1.403       .  A
C1378      C1379   1.405       .  A
C1378      C2787   1.451       .  S
C1379      C1380   1.419       .  A
C1379      C1386   1.450       .  S
C1380      C1381   1.411       .  A
C1381      C1382   1.404       .  A
C1381      C1384   1.448       .  S
C1382      C2781   1.406       .  A
C1382      C2789   1.452       .  S
C1383      C2782   1.451       .  S
C1383      N1390   1.157       .  T
C1384      N1389   1.157       .  T
C1385      C2786   1.454       .  S
C1385      N1387   1.157       .  T
C1386      N1388   1.157       .  T
C1391      C1392   1.440       .  A
C1391      C1396   1.395       .  A
C1392      C1393   1.423       .  A
C1392      C1397   1.446       .  S
C1393      C1394   1.416       .  A
C1393      C1400   1.454       .  S
C1394      C1395   1.431       .  A
C1395      C1396   1.405       .  A
C1395      C1398   1.448       .  S
C1396      C1399   1.445       .  S
C1397      N1404   1.156       .  T
C1398      N1403   1.158       .  T
C1399      N1401   1.158       .  T
C1400      N1402   1.158       .  T
Zn1405     O1409   1.944       .  S
Zn1405     O1410   2.013       .  S
Zn1405     O1414   1.990       .  S
Zn1405     O1421   2.025       .  S
Zn1406     O1409   1.937       .  S
Zn1406     O1411   1.997       .  S
Zn1406     O1413   1.989       .  S
Zn1406     O1417   2.052       .  S
Zn1407     O1409   1.947       .  S
Zn1407     O1412   2.015       .  S
Zn1407     O1415   1.994       .  S
Zn1407     O1418   2.035       .  S
Zn1408     O1409   1.901       .  S
Zn1408     O1416   1.921       .  S
Zn1408     O1419   1.961       .  S
Zn1408     O1420   1.926       .  S
O1410      C1422   1.275       .  A
O1411      C1423   1.273       .  A
O1412      C1424   1.273       .  A
O1413      C1422   1.271       .  A
O1414      C1424   1.269       .  A
O1415      C1423   1.271       .  A
O1416      C1425   1.261       .  A
O1417      C1426   1.278       .  A
O1418      C1425   1.275       .  A
O1419      C1426   1.264       .  A
O1420      C1427   1.262       .  A
O1421      C1427   1.275       .  A
C1422      C2037   1.485       .  S
C1423      C2054   1.471       .  S
C1424      C2023   1.488       .  S
C1425      C2068   1.462       .  S
C1426      C2096   1.491       .  S
C1427      C2079   1.455       .  S
Zn1428     O2134   1.886       .  S
Zn1428     O1433   2.062       .  S
Zn1428     O2139   1.983       .  S
Zn1429     O1432   1.893       .  S
Zn1429     O1434   1.956       .  S
Zn1429     O2138   1.959   1_545  S
Zn1430     O1432   1.947       .  S
Zn1430     O1435   1.988       .  S
Zn1430     O1438   2.044       .  S
Zn1431     O2141   2.019       .  S
Zn1431     O1442   2.079       .  S
Zn1431     O1443   2.049       .  S
O1432     Zn2130   1.932   1_545  S
O1433      C1445   1.280       .  A
O1434      C1446   1.265       .  A
O1435      C1447   1.271       .  A
O1436     Zn2131   1.954       .  S
O1436      C1445   1.266       .  A
O1437     Zn2130   2.000   1_545  S
O1437      C1447   1.273       .  A
O1438      C1446   1.277       .  A
O1439     Zn2133   2.006   1_545  S
O1439      C1448   1.276       .  A
O1440      C1449   1.263       .  A
O1441      C1448   1.272   1_455  A
O1442      C1449   1.282       .  A
O1443      C1450   1.280       .  A
O1444      C1450   1.274       .  A
C1445      C2026   1.488       .  S
C1446      C2040   1.478       .  S
C1447      C2009   1.480       .  S
C1448      C1995   1.486       .  S
C1449      C2051   1.488       .  S
C1450      C1981   1.509       .  S
C1451      H1452   1.109       .  S
C1451      C1457   1.612       .  S
C1451      C1456   1.611       .  S
C1451      C1455   1.611       .  S
C1453      H1454   1.109       .  S
C1453      C1459   1.531       .  S
C1453      C1458   1.535       .  S
C1453      C1460   1.538       .  S
C1455      C1458   1.382       .  D
C1455      C1939   1.568       .  S
C1456      C1459   1.383       .  D
C1456      C1953   1.568       .  S
C1457      C1460   1.387       .  D
C1457      C1970   1.575       .  S
C1458      C1914   1.514       .  S
C1459      C1897   1.513       .  S
C1460      C1928   1.518       .  S
C1461      H2164   1.109       .  S
C1461      C2168   1.612       .  S
H1462      C2163   1.109       .  S
C1463      H1464   1.109       .  S
C1463      C2171   1.529       .  S
C1465      C1468   1.384       .  D
C1465      C1967   1.576       .  S
C1466      C2163   1.611   1_655  S
C1466      C1469   1.384       .  D
C1466      C1956   1.567       .  S
C1467      C1470   1.381       .  D
C1467      C1942   1.569       .  S
C1468      C1883   1.512       .  S
C1469      C2165   1.534   1_655  S
C1469      C1858   1.514       .  S
C1470      C1872   1.512       .  S
C1471      H1472   1.087       .  S
C1471      C1477   1.525       .  S
C1471      C1476   1.517       .  S
C1471      C1475   1.533       .  S
C1473      H1474   1.108       .  S
C1473      C1479   1.615       .  S
C1473      C1478   1.602       .  S
C1473      C1480   1.628       .  S
C1475      C1478   1.367       .  D
C1475      C1802   1.493       .  S
C1476      C1479   1.378       .  D
C1476      C1785   1.513       .  S
C1477      C1480   1.414       .  D
C1477      C1771   1.536       .  S
C1478      C1844   1.566       .  S
C1479      C1830   1.564       .  S
C1480      C1813   1.581       .  S
C1481      H1482   1.108       .  S
C1481      C1487   1.604       .  S
C1481      C1486   1.624       .  S
C1481      C1485   1.616       .  S
C1483      H1484   1.087       .  S
C1483      C1489   1.519       .  S
C1483      C1488   1.520       .  S
C1483      C1490   1.533       .  S
C1485      C1488   1.379       .  D
C1485      C1816   1.562       .  S
C1486      C1489   1.414       .  D
C1486      C1841   1.573       .  S
C1487      C1490   1.364       .  D
C1487      C1827   1.573       .  S
C1488      C2065   1.521       .  S
C1489      C2093   1.536       .  S
C1490      C2082   1.481       .  S
Zn1491     O1495   1.937       .  S
Zn1491     O1496   1.988       .  S
Zn1491     O1500   1.987       .  S
Zn1491     O1507   2.017       .  S
Zn1492     O1495   1.954       .  S
Zn1492     O1497   2.005       .  S
Zn1492     O1499   2.031       .  S
Zn1492     O1503   2.061       .  S
Zn1493     O1495   1.938       .  S
Zn1493     O1498   1.999       .  S
Zn1493     O1501   1.982       .  S
Zn1493     O1504   2.024       .  S
Zn1494     O1495   1.895       .  S
Zn1494     O1502   1.909       .  S
Zn1494     O1505   1.912       .  S
Zn1494     O1506   1.930       .  S
O1496      C1508   1.270       .  A
O1497      C1509   1.272       .  A
O1498      C1510   1.271       .  A
O1499      C1508   1.276       .  A
O1500      C1510   1.270       .  A
O1501      C1509   1.270       .  A
O1502      C1511   1.259       .  A
O1503      C1512   1.279       .  A
O1504      C1511   1.273       .  A
O1505      C1512   1.259       .  A
O1506      C1513   1.261       .  A
O1507      C1513   1.274       .  A
C1508      C1757   1.495       .  S
C1509      C1743   1.485       .  S
C1510      C1729   1.483       .  S
C1511      C1788   1.461   1_655  S
C1512      C1799   1.465       .  S
C1513      C1774   1.465       .  S
Zn1514     O1518   1.851       .  S
Zn1514     O2232   1.923       .  S
Zn1515     O2222   1.995   1_545  S
Zn1515     O1522   2.046       .  S
Zn1516     O1521   2.044       .  S
Zn1516     O1524   1.972       .  S
Zn1517     O2220   1.915   1_545  S
Zn1517     O2227   1.979   1_545  S
Zn1517     O1528   2.001       .  S
Zn1517     O1529   2.065       .  S
O1518     Zn2219   1.917       .  S
O1519      C1531   1.264   1_455  A
O1520     Zn2217   1.988       .  S
O1520      C1532   1.271       .  A
O1521      C1533   1.279       .  A
O1522      C1531   1.278       .  A
O1523      C1533   1.263       .  A
O1524      C1532   1.271       .  A
O1525     Zn2219   1.984       .  S
O1525      C1534   1.272       .  A
O1526      C1535   1.271       .  A
O1527      C1534   1.273       .  A
O1528      C1535   1.273       .  A
O1529      C1536   1.279       .  A
O1530     Zn2216   1.949       .  S
O1530      C1536   1.265       .  A
C1531      C1732   1.479       .  S
C1532      C1900   1.472       .  S
C1533      C1746   1.479       .  S
C1534      C1911   1.480       .  S
C1535      C1925   1.476       .  S
C1536      C1760   1.484       .  S
C1537      H1538   1.108       .  S
C1537      C1543   1.631       .  S
C1537      C1542   1.606       .  S
C1537      C1541   1.613       .  S
C1539      H1540   1.091       .  S
C1539      C1545   1.545       .  S
C1539      C1544   1.530       .  S
C1539      C1546   1.529       .  S
C1541      C1544   1.387       .  D
C1541      C1718   1.576       .  S
C1542      C1545   1.368       .  D
C1542      C1687   1.580       .  S
C1543      C1546   1.410       .  D
C1543      C1701   1.571       .  S
C1544      C2012   1.520       .  S
C1545      C1998   1.497       .  S
C1546      C1984   1.552       .  S
C1547      H1548   1.109   1_565  S
C1547      C1553   1.619   1_565  S
C1549      H1550   1.110       .  S
C1549      C1556   1.533   1_565  S
C1551      C1554   1.387       .  D
C1551      C1704   1.566       .  S
C1552      C1555   1.379       .  D
C1552      C1690   1.573       .  S
C1553      C1556   1.393       .  D
C1553      C1715   1.578       .  S
C1554      C1645   1.516       .  S
C1555      C1662   1.506       .  S
C1556      C1676   1.517       .  S
Zn1557     O1561   1.936       .  S
Zn1557     O1562   1.982       .  S
Zn1557     O1566   1.997       .  S
Zn1557     O1573   2.021       .  S
Zn1558     O1561   1.936       .  S
Zn1558     O1563   1.977       .  S
Zn1558     O1565   2.011       .  S
Zn1558     O1569   2.015       .  S
Zn1559     O1561   1.938       .  S
Zn1559     O1564   1.971       .  S
Zn1559     O1567   2.007       .  S
Zn1559     O1570   2.017       .  S
Zn1560     O1561   1.912       .  S
Zn1560     O1568   1.939       .  S
Zn1560     O1571   1.929       .  S
Zn1560     O1572   1.932       .  S
O1562      C1574   1.270       .  A
O1563      C1575   1.269       .  A
O1564      C1576   1.269       .  A
O1565      C1574   1.272       .  A
O1566      C1576   1.271       .  A
O1567      C1575   1.271       .  A
O1568      C1577   1.262       .  A
O1569      C1578   1.275       .  A
O1570      C1577   1.276       .  A
O1571      C1578   1.262       .  A
O1572      C1579   1.262       .  A
O1573      C1579   1.275       .  A
C1574      C1617   1.487       .  S
C1575      C1606   1.479       .  S
C1576      C1631   1.481       .  S
C1577      C1886   1.470       .  S
C1578      C1855   1.467       .  S
C1579      C1869   1.468       .  S
Zn1580     O1584   1.943       .  S
Zn1580     O1585   1.984       .  S
Zn1580     O1589   2.016       .  S
Zn1580     O1596   2.025       .  S
Zn1581     O1584   1.938       .  S
Zn1581     O1586   1.984       .  S
Zn1581     O1588   1.999       .  S
Zn1581     O1592   2.027       .  S
Zn1582     O1584   1.946       .  S
Zn1582     O1587   2.002       .  S
Zn1582     O1590   2.011       .  S
Zn1582     O1593   2.024       .  S
Zn1583     O1584   1.908       .  S
Zn1583     O1591   1.913       .  S
Zn1583     O1594   1.926       .  S
Zn1583     O1595   1.934       .  S
O1585      C1597   1.270       .  A
O1586      C1598   1.269       .  A
O1587      C1599   1.271       .  A
O1588      C1597   1.273       .  A
O1589      C1599   1.273       .  A
O1590      C1598   1.273       .  A
O1591      C1600   1.260       .  A
O1592      C1601   1.275       .  A
O1593      C1600   1.277       .  A
O1594      C1601   1.260       .  A
O1595      C1602   1.261       .  A
O1596      C1602   1.275       .  A
C1597      C1634   1.482       .  S
C1598      C1603   1.481       .  S
C1599      C1620   1.491   1_554  S
C1600      C1673   1.467       .  S
C1601      C1648   1.476       .  S
C1602      C1659   1.471       .  S
C1603      C1604   1.419   1_554  A
C1603      C1608   1.408   1_554  A
C1604      C1605   1.406       .  A
C1604      C1609   1.452       .  S
C1605      C1606   1.409       .  A
C1605      C1612   1.453       .  S
C1606      C1607   1.417       .  A
C1607      C1608   1.409       .  A
C1607      C1610   1.451       .  S
C1608      C1611   1.450   1_556  S
C1609      N1616   1.157       .  T
C1610      N1615   1.157       .  T
C1611      N1613   1.157       .  T
C1612      N1614   1.157       .  T
C1617      C1618   1.419       .  A
C1617      C1622   1.412       .  A
C1618      C2321   1.411       .  A
C1618      C1623   1.452       .  S
C1619      C2320   1.412       .  A
C1619      C1620   1.412   1_565  A
C1619      C1626   1.451   1_556  S
C1620      C1621   1.420       .  A
C1621      C2324   1.409       .  A
C1621      C1624   1.451       .  S
C1622      C2323   1.408       .  A
C1622      C1625   1.454       .  S
C1623      N1630   1.157       .  T
C1624      N1629   1.157       .  T
C1625      N1627   1.157       .  T
C1626      N1628   1.157       .  T
C1631      C1636   1.418       .  A
C1632      C1633   1.406       .  A
C1632      C1637   1.454       .  S
C1633      C1634   1.420   1_556  A
C1633      C1640   1.451       .  S
C1635      C1636   1.408       .  A
C1635      C1638   1.451   1_556  S
C1636      C1639   1.453       .  S
C1637      N1644   1.157       .  T
C1638      N1643   1.157       .  T
C1639      N1641   1.157       .  T
C1640      N1642   1.156       .  T
C1645      C1646   1.425       .  A
C1645      C1650   1.422       .  A
C1646      C1647   1.403       .  A
C1646      C1651   1.437   1_655  S
C1647      C1648   1.395       .  A
C1647      C1654   1.456       .  S
C1648      C1649   1.411       .  A
C1649      C1650   1.416       .  A
C1649      C1652   1.454       .  S
C1650      C1653   1.446       .  S
C1652      N1657   1.158       .  T
C1653      N1655   1.156       .  T
C1654      N1656   1.157   1_655  T
C1659      C1660   1.411       .  A
C1659      C1664   1.400       .  A
C1660      C1661   1.410       .  A
C1660      C1665   1.453       .  S
C1661      C1662   1.423       .  A
C1662      C1663   1.421       .  A
C1663      C1664   1.405       .  A
C1663      C2368   1.438   1_545  S
C1664      C1667   1.456       .  S
C1666      C2365   1.439       .  S
C1666      N1671   1.154       .  T
C1667      N2371   1.157   1_545  T
C1668      N1670   1.156       .  T
N1669      C2369   1.157       .  T
C1673      C1674   1.408       .  A
C1673      C1678   1.394       .  A
C1674      C1675   1.411       .  A
C1674      C1679   1.455       .  S
C1675      C1676   1.425       .  A
C1675      C1682   1.448       .  S
C1676      C1677   1.430       .  A
C1677      C1678   1.404       .  A
C1677      C1680   1.439       .  S
C1678      C1681   1.458       .  S
C1679      N1686   1.157       .  T
C1680      N1685   1.154       .  T
C1681      N1683   1.157       .  T
C1682      N1684   1.157   1_545  T
C1687      C1688   1.420       .  A
C1687      C1692   1.436       .  A
C1688      C1689   1.444       .  A
C1688      C1693   1.447       .  S
C1689      C1690   1.435       .  A
C1689      C2398   1.446   1_545  S
C1690      C1691   1.414       .  A
C1691      C1692   1.439       .  A
C1692      C1695   1.443       .  S
C1693      N1700   1.156       .  T
C1694      N1699   1.157       .  T
C1695      N1697   1.157   1_655  T
C1696      C2391   1.447       .  S
C1696      N1698   1.157       .  T
C1701      C1702   1.421       .  A
C1701      C1706   1.425       .  A
C1702      C1703   1.440       .  A
C1702      C1707   1.445       .  S
C1703      C1704   1.430       .  A
C1703      C1710   1.447   1_655  S
C1704      C1705   1.418       .  A
C1705      C1706   1.438       .  A
C1705      C1708   1.448       .  S
C1706      C1709   1.441       .  S
C1707      N1714   1.156       .  T
C1708      N1713   1.157       .  T
C1709      N1711   1.157       .  T
C1715      C1716   1.423       .  A
C1715      C1720   1.439       .  A
C1716      C1717   1.440       .  A
C1716      C1721   1.448   1_545  S
C1717      C1718   1.431       .  A
C1717      C1724   1.449       .  S
C1718      C1719   1.420       .  A
C1719      C1720   1.445       .  A
C1719      C1722   1.446       .  S
C1720      C1723   1.447       .  S
C1721      N1728   1.157       .  T
C1722      N1727   1.156       .  T
C1723      N1725   1.157       .  T
C1724      N1726   1.157   1_545  T
C1729      C1730   1.411       .  A
C1729      C1734   1.419       .  A
C1730      C1731   1.409       .  A
C1730      C1735   1.452   1_655  S
C1731      C1732   1.416       .  A
C1731      C1738   1.450   1_655  S
C1732      C1733   1.411       .  A
C1733      C1734   1.406       .  A
C1733      C1736   1.454       .  S
C1734      C1737   1.450       .  S
C1735      N1742   1.157       .  T
C1736      N1741   1.158       .  T
C1737      N1739   1.156       .  T
C1743      C1744   1.412       .  A
C1743      C1748   1.421       .  A
C1744      C1745   1.411       .  A
C1744      C1749   1.452       .  S
C1745      C1746   1.418       .  A
C1745      C1752   1.452       .  S
C1746      C1747   1.410       .  A
C1747      C1748   1.404       .  A
C1747      C1750   1.455       .  S
C1748      C1751   1.452       .  S
C1749      N1756   1.158       .  T
C1750      N1755   1.158       .  T
C1751      N1753   1.157       .  T
C1757      C1758   1.421       .  A
C1757      C1762   1.418       .  A
C1758      C1759   1.412       .  A
C1758      C1763   1.451       .  S
C1759      C1760   1.411       .  A
C1759      C1766   1.453       .  S
C1760      C1761   1.414       .  A
C1761      C1762   1.411       .  A
C1761      C1764   1.453   1_545  S
C1762      C1765   1.452   1_545  S
C1763      N1770   1.157       .  T
C1764      N1769   1.157       .  T
C1765      N1767   1.157       .  T
C1766      N1768   1.158       .  T
C1771      C1772   1.439       .  A
C1771      C1776   1.401       .  A
C1772      C1773   1.412       .  A
C1772      C1777   1.446       .  S
C1773      C2476   1.402       .  A
C1773      C1780   1.455       .  S
C1774      C2475   1.407       .  A
C1774      C1775   1.396   1_545  A
C1775      C2478   1.404       .  A
C1775      C1778   1.460       .  S
C1776      C2477   1.399       .  A
C1776      C1779   1.442       .  S
C1777      N1784   1.158       .  T
C1778      N1783   1.158       .  T
C1779      N1781   1.156       .  T
C1780      N1782   1.158       .  T
C1785      C1786   1.422       .  A
C1785      C1790   1.424       .  A
C1786      C1787   1.409       .  A
C1786      C1791   1.442       .  S
C1789      C1790   1.406       .  A
C1789      C1792   1.455       .  S
C1790      C1793   1.442       .  S
C1791      N1798   1.156       .  T
C1793      N1795   1.155       .  T
C1794      N1796   1.157       .  T
C1799      C1800   1.408       .  A
C1799      C1804   1.405       .  A
C1800      C1801   1.408       .  A
C1800      C1805   1.455       .  S
C1801      C1802   1.413       .  A
C1801      C1808   1.445       .  S
C1802      C1803   1.415       .  A
C1803      C1804   1.408       .  A
C1803      C1806   1.449       .  S
C1804      C1807   1.452       .  S
C1805      N1812   1.158       .  T
C1806      N1811   1.158       .  T
C1807      N1809   1.157       .  T
C1808      N1810   1.156       .  T
C1813      C1814   1.432       .  A
C1813      C1818   1.420       .  A
C1814      C2517   1.441       .  A
C1814      C1819   1.440       .  S
C1815      C2516   1.437   1_545  A
C1815      C1816   1.415       .  A
C1815      C1822   1.448       .  S
C1816      C1817   1.432       .  A
C1817      C2520   1.433   1_545  A
C1817      C1820   1.446       .  S
C1818      C2519   1.437       .  A
C1818      C1821   1.444       .  S
C1819      N1826   1.156       .  T
C1820      N1825   1.156       .  T
C1821      N1823   1.157       .  T
C1822      N1824   1.157       .  T
C1827      C1828   1.415       .  A
C1827      C1832   1.438       .  A
C1828      C1833   1.448       .  S
C1829      C1830   1.434       .  A
C1829      C1836   1.445       .  S
C1830      C1831   1.412       .  A
C1831      C1834   1.450       .  S
C1832      C1835   1.443       .  S
C1833      N1840   1.156       .  T
C1834      N1839   1.157       .  T
C1835      N1837   1.157       .  T
C1836      N1838   1.156       .  T
C1841      C1842   1.418       .  A
C1841      C1846   1.426       .  A
C1842      C1843   1.439       .  A
C1842      C1847   1.443       .  S
C1843      C1844   1.429       .  A
C1843      C1850   1.444       .  S
C1844      C1845   1.415       .  A
C1845      C1846   1.439       .  A
C1845      C1848   1.448       .  S
C1846      C1849   1.438       .  S
C1847      N1854   1.156       .  T
C1848      N1853   1.156       .  T
C1849      N1851   1.155       .  T
C1850      N1852   1.157       .  T
C1855      C1856   1.396       .  A
C1855      C1860   1.408       .  A
C1856      C1857   1.402       .  A
C1856      C1861   1.460       .  S
C1857      C1858   1.424       .  A
C1857      C1864   1.437       .  S
C1858      C1859   1.426       .  A
C1859      C1860   1.413       .  A
C1859      C1862   1.448       .  S
C1860      C1863   1.454       .  S
C1861      N1868   1.158       .  T
C1862      N1867   1.157       .  T
C1863      N1865   1.157       .  T
C1864      N1866   1.153       .  T
C1869      C1870   1.397       .  A
C1869      C1874   1.408       .  A
C1870      C1871   1.404       .  A
C1870      C1875   1.459       .  S
C1871      C1872   1.423       .  A
C1871      C1878   1.438       .  S
C1872      C1873   1.424       .  A
C1873      C1874   1.413       .  A
C1873      C1876   1.448       .  S
C1874      C1877   1.454       .  S
C1875      N1882   1.158       .  T
C1876      N1881   1.157       .  T
C1877      N1879   1.157       .  T
C1878      N1880   1.154       .  T
C1883      C1884   1.425       .  A
C1883      C1888   1.424       .  A
C1884      C1885   1.413       .  A
C1884      C1889   1.448       .  S
C1885      C1886   1.409       .  A
C1885      C1892   1.453       .  S
C1886      C1887   1.399       .  A
C1887      C1888   1.404       .  A
C1887      C1890   1.459       .  S
C1888      C1891   1.439       .  S
C1889      N1896   1.157       .  T
C1890      N1895   1.158       .  T
C1891      N1893   1.154       .  T
C1892      N1894   1.158       .  T
C1897      C1898   1.424       .  A
C1897      C1902   1.425       .  A
C1898      C1899   1.402       .  A
C1898      C1903   1.440       .  S
C1899      C1900   1.399       .  A
C1899      C1906   1.459       .  S
C1900      C1901   1.410       .  A
C1901      C1902   1.413       .  A
C1901      C2606   1.453       .  S
C1902      C1905   1.449       .  S
C1903      N1910   1.154       .  T
C1904      C2603   1.452   1_545  S
C1904      N1909   1.157       .  T
C1905      N1907   1.157       .  T
C1906      N1908   1.158       .  T
C1911      C1912   1.400       .  A
C1911      C1916   1.412       .  A
C1912      C1913   1.403       .  A
C1912      C1917   1.457       .  S
C1913      C1914   1.422       .  A
C1913      C1920   1.439       .  S
C1914      C1915   1.426       .  A
C1915      C1916   1.417       .  A
C1915      C1918   1.447       .  S
C1917      N2626   1.157       .  T
C1918      N1923   1.157       .  T
C1919      N1921   1.157       .  T
C1920      N1922   1.154       .  T
N1924      C2619   1.158       .  T
C1925      C1926   1.398       .  A
C1925      C1930   1.409       .  A
C1926      C1927   1.404       .  A
C1926      C1931   1.460       .  S
C1927      C1928   1.426       .  A
C1927      C1934   1.439       .  S
C1928      C1929   1.427       .  A
C1929      C1930   1.415       .  A
C1929      C1932   1.449       .  S
C1930      C1933   1.452       .  S
C1931      N1938   1.158       .  T
C1932      N1937   1.157       .  T
C1933      N1935   1.157       .  T
C1934      N1936   1.154       .  T
C1939      C1940   1.416       .  A
C1939      C1944   1.433       .  A
C1940      C1941   1.440       .  A
C1940      C1945   1.449       .  S
C1941      C1942   1.434       .  A
C1941      C1948   1.445       .  S
C1942      C1943   1.417       .  A
C1943      C1944   1.440       .  A
C1943      C2648   1.448       .  S
C1944      C1947   1.446       .  S
C1945      N1952   1.157       .  T
C1946      C2645   1.448   1_545  S
C1946      N1951   1.157       .  T
C1947      N1949   1.156       .  T
C1953      C1954   1.418       .  A
C1953      C1958   1.434       .  A
C1954      C1955   1.439       .  A
C1954      C1959   1.449       .  S
C1955      C1956   1.433       .  A
C1955      C1962   1.447       .  S
C1956      C1957   1.417       .  A
C1957      C1958   1.440       .  A
C1957      C1960   1.448       .  S
C1958      C1961   1.448       .  S
C1959      N1966   1.157       .  T
C1960      N1965   1.157       .  T
C1961      N1963   1.157       .  T
C1962      N1964   1.156       .  T
C1967      C1968   1.420       .  A
C1967      C1972   1.436       .  A
C1968      C1969   1.442       .  A
C1969      C1970   1.434       .  A
C1969      C1976   1.447       .  S
C1970      C1971   1.419       .  A
C1971      C1972   1.442       .  A
C1971      C1974   1.449       .  S
C1972      C1975   1.447       .  S
C1973      N1980   1.157       .  T
C1974      N1979   1.157       .  T
C1975      N1977   1.157       .  T
C1976      N1978   1.157       .  T
C1981      C1982   1.418       .  A
C1981      C1986   1.414       .  A
C1982      C1983   1.423       .  A
C1982      C1987   1.453       .  S
C1983      C1984   1.418       .  A
C1983      C1990   1.438       .  S
C1984      C1985   1.429       .  A
C1985      C1986   1.409       .  A
C1985      C1988   1.448       .  S
C1986      C1989   1.455       .  S
C1987      N1994   1.158       .  T
C1988      N1993   1.158       .  T
C1989      N1991   1.158   1_655  T
C1990      N1992   1.155       .  T
C1995      C1996   1.413       .  A
C1995      C2000   1.411       .  A
C1996      C1997   1.405       .  A
C1996      C2001   1.449       .  S
C1997      C1998   1.412       .  A
C1997      C2004   1.449       .  S
C1998      C1999   1.415       .  A
C1999      C2000   1.410       .  A
C1999      C2002   1.451       .  S
C2000      C2003   1.450   1_655  S
C2001      N2008   1.156   1_545  T
C2002      N2007   1.158       .  T
C2004      N2006   1.157   1_545  T
C2009      C2010   1.401       .  A
C2009      C2014   1.411       .  A
C2010      C2011   1.408       .  A
C2010      C2015   1.456       .  S
C2011      C2012   1.427       .  A
C2011      C2018   1.444       .  S
C2012      C2013   1.424       .  A
C2013      C2014   1.411       .  A
C2013      C2016   1.446       .  S
C2014      C2017   1.456       .  S
C2015      N2022   1.157       .  T
C2016      N2021   1.157       .  T
C2017      N2019   1.157       .  T
C2018      N2020   1.155       .  T
C2023      C2024   1.416       .  A
C2023      C2028   1.414       .  A
C2024      C2025   1.409       .  A
C2024      C2029   1.453       .  S
C2025      C2026   1.414       .  A
C2025      C2734   1.451       .  S
C2026      C2027   1.417       .  A
C2027      C2028   1.412       .  A
C2027      C2030   1.452       .  S
C2028      C2031   1.452       .  S
C2029      N2738   1.158       .  T
C2031      N2033   1.157       .  T
C2032      C2727   1.454       .  S
C2032      N2034   1.157       .  T
N2036      C2731   1.156       .  T
C2037      C2038   1.414       .  A
C2037      C2042   1.418       .  A
C2038      C2039   1.409       .  A
C2038      C2043   1.452       .  S
C2039      C2040   1.414       .  A
C2039      C2046   1.452       .  S
C2040      C2041   1.411       .  A
C2041      C2042   1.409       .  A
C2042      C2045   1.452       .  S
C2043      N2050   1.157       .  T
C2044      N2049   1.157       .  T
C2045      N2047   1.157       .  T
C2046      N2048   1.157       .  T
C2051      C2052   1.428       .  A
C2051      C2056   1.412       .  A
C2052      C2053   1.406       .  A
C2052      C2057   1.454       .  S
C2053      C2054   1.401       .  A
C2053      C2060   1.453       .  S
C2054      C2055   1.415       .  A
C2055      C2056   1.410       .  A
C2055      C2058   1.452       .  S
C2056      C2059   1.451       .  S
C2057      N2064   1.158       .  T
C2058      N2063   1.157       .  T
C2059      N2061   1.157       .  T
C2060      N2062   1.157       .  T
C2065      C2066   1.426       .  A
C2065      C2070   1.424       .  A
C2066      C2769   1.411   1_545  A
C2066      C2071   1.440       .  S
C2067      C2768   1.407       .  A
C2067      C2068   1.405       .  A
C2067      C2074   1.455       .  S
C2068      C2771   1.397       .  A
C2069      C2770   1.397   1_545  A
C2069      C2070   1.405       .  A
C2069      C2072   1.457       .  S
C2070      C2073   1.439       .  S
C2071      N2078   1.155       .  T
C2072      N2077   1.157       .  T
C2073      N2075   1.153       .  T
C2074      N2076   1.157       .  T
C2080      C2081   1.404       .  A
C2081      C2082   1.415       .  A
C2081      C2088   1.451       .  S
C2082      C2083   1.406       .  A
C2083      C2084   1.401   1_655  A
C2083      C2086   1.449       .  S
C2085      N2092   1.157       .  T
C2086      N2091   1.157       .  T
C2087      N2089   1.157       .  T
C2088      N2090   1.158       .  T
C2093      C2094   1.440       .  A
C2093      C2098   1.396       .  A
C2094      C2095   1.411       .  A
C2094      C2099   1.448       .  S
C2095      C2096   1.405       .  A
C2095      C2102   1.454       .  S
C2096      C2097   1.417       .  A
C2097      C2098   1.402       .  A
C2097      C2100   1.442       .  S
C2098      C2101   1.444       .  S
C2099      N2106   1.158       .  T
C2100      N2105   1.155       .  T
C2101      N2103   1.157       .  T
C2102      N2104   1.158       .  T
Zn2107     O2111   1.949       .  S
Zn2107     O2112   1.994       .  S
Zn2107     O2116   2.022       .  S
Zn2107     O2123   2.028       .  S
Zn2108     O2111   1.937       .  S
Zn2108     O2113   2.028       .  S
Zn2108     O2115   1.992       .  S
Zn2108     O2119   2.063       .  S
Zn2109     O2111   1.944       .  S
Zn2109     O2114   2.013       .  S
Zn2109     O2117   1.994       .  S
Zn2109     O2120   2.018       .  S
Zn2110     O2111   1.910       .  S
Zn2110     O2118   1.944       .  S
Zn2110     O2121   1.973       .  S
Zn2110     O2122   1.944       .  S
O2112      C2124   1.271       .  A
O2113      C2125   1.276       .  A
O2114      C2126   1.274       .  A
O2115      C2124   1.271       .  A
O2116      C2126   1.272       .  A
O2117      C2125   1.270       .  A
O2118      C2127   1.265       .  A
O2119      C2128   1.281       .  A
O2120      C2127   1.275       .  A
O2121      C2128   1.265       .  A
O2122      C2129   1.265       .  A
O2123      C2129   1.274       .  A
C2124      C2739   1.488       .  S
C2125      C2756   1.490       .  S
C2126      C2725   1.493       .  S
C2127      C2770   1.465       .  S
C2128      C2798   1.504       .  S
C2129      C2781   1.464       .  S
Zn2130     O2135   2.053       .  S
Zn2131     O2134   1.834       .  S
Zn2131     O2136   1.955       .  S
Zn2132     O2134   1.914       .  S
Zn2132     O2137   1.974       .  S
Zn2132     O2140   2.052       .  S
Zn2133     O2144   2.055       .  S
Zn2133     O2145   2.043       .  S
O2135      C2147   1.278       .  A
O2136      C2148   1.262       .  A
O2137      C2149   1.271       .  A
O2138      C2147   1.265       .  A
O2139      C2149   1.274       .  A
O2140      C2148   1.278       .  A
O2141      C2150   1.279       .  A
O2142      C2151   1.264   1_545  A
O2143      C2150   1.275       .  A
O2144      C2151   1.279       .  A
O2145      C2152   1.276       .  A
O2146      C2152   1.272       .  A
C2147      C2728   1.478       .  S
C2148      C2742   1.479       .  S
C2149      C2711   1.469       .  S
C2150      C2697   1.487       .  S
C2151      C2753   1.477       .  S
C2152      C2683   1.510       .  S
C2153      H2154   1.109       .  S
C2153      C2159   1.607       .  S
C2153      C2158   1.612       .  S
C2153      C2157   1.609       .  S
C2155      H2156   1.110       .  S
C2155      C2161   1.529       .  S
C2155      C2160   1.536       .  S
C2155      C2162   1.539       .  S
C2157      C2160   1.381       .  D
C2157      C2641   1.569       .  S
C2158      C2161   1.386       .  D
C2158      C2655   1.564       .  S
C2159      C2162   1.384       .  D
C2159      C2672   1.572       .  S
C2160      C2616   1.511       .  S
C2161      C2599   1.517       .  S
C2162      C2630   1.509       .  S
C2165      H2166   1.110       .  S
C2167      C2170   1.382       .  D
C2167      C2669   1.571       .  S
C2168      C2171   1.385       .  D
C2168      C2658   1.564       .  S
C2169      C2172   1.378       .  D
C2169      C2644   1.571       .  S
C2170      C2585   1.510       .  S
C2171      C2560   1.515       .  S
C2172      C2574   1.503       .  S
C2173      H2174   1.105       .  S
C2173      C2179   1.518       .  S
C2173      C2178   1.539       .  S
C2173      C2177   1.536       .  S
C2175      H2176   1.108       .  S
C2175      C2181   1.610       .  S
C2175      C2180   1.601       .  S
C2175      C2182   1.613       .  S
C2177      C2180   1.376       .  D
C2177      C2504   1.499       .  S
C2178      C2181   1.390       .  D
C2178      C2487   1.515       .  S
C2179      C2182   1.382       .  D
C2179      C2473   1.510       .  S
C2180      C2546   1.565       .  S
C2181      C2532   1.577       .  S
C2182      C2515   1.558       .  S
C2183      H2184   1.111       .  S
C2183      C2189   1.609       .  S
C2183      C2188   1.631       .  S
C2183      C2187   1.615       .  S
C2185      H2186   1.096       .  S
C2185      C2191   1.529       .  S
C2185      C2190   1.514       .  S
C2185      C2192   1.524       .  S
C2187      C2190   1.379       .  D
C2187      C2518   1.569       .  S
C2188      C2191   1.419       .  D
C2188      C2543   1.578       .  S
C2189      C2192   1.367       .  D
C2189      C2529   1.571       .  S
C2190      C2767   1.507       .  S
C2191      C2795   1.556       .  S
C2192      C2784   1.489       .  S
Zn2193     O2197   1.939       .  S
Zn2193     O2198   1.988       .  S
Zn2193     O2202   1.991       .  S
Zn2193     O2209   2.021       .  S
Zn2194     O2197   1.943       .  S
Zn2194     O2199   1.982       .  S
Zn2194     O2201   2.011       .  S
Zn2194     O2205   2.025       .  S
Zn2195     O2197   1.936       .  S
Zn2195     O2200   1.992       .  S
Zn2195     O2203   1.994       .  S
Zn2195     O2206   2.009       .  S
Zn2196     O2197   1.906       .  S
Zn2196     O2204   1.931       .  S
Zn2196     O2207   1.942       .  S
Zn2196     O2208   1.944       .  S
O2198      C2210   1.270       .  A
O2199      C2211   1.269       .  A
O2200      C2212   1.271       .  A
O2201      C2210   1.274       .  A
O2202      C2212   1.270       .  A
O2203      C2211   1.270       .  A
O2204      C2213   1.261       .  A
O2205      C2214   1.275       .  A
O2206      C2213   1.274       .  A
O2207      C2214   1.264       .  A
O2208      C2215   1.264       .  A
O2209      C2215   1.274       .  A
C2210      C2459   1.484       .  S
C2211      C2445   1.479       .  S
C2212      C2431   1.484       .  S
C2213      C2490   1.466       .  S
C2214      C2501   1.460       .  S
C2215      C2476   1.475       .  S
Zn2216     O2220   1.855   1_545  S
Zn2217     O2224   2.043       .  S
Zn2218     O2223   2.043       .  S
Zn2218     O2226   1.982       .  S
Zn2219     O2230   1.987       .  S
Zn2219     O2231   2.048       .  S
O2221      C2233   1.263   1_455  A
O2222      C2234   1.272       .  A
O2223      C2235   1.278       .  A
O2224      C2233   1.276       .  A
O2225      C2235   1.264       .  A
O2226      C2234   1.272       .  A
O2227      C2236   1.273       .  A
O2228      C2237   1.271       .  A
O2229      C2236   1.273       .  A
O2230      C2237   1.272       .  A
O2231      C2238   1.277       .  A
O2232      C2238   1.262       .  A
C2233      C2434   1.482       .  S
C2234      C2602   1.475       .  S
C2235      C2448   1.478       .  S
C2236      C2613   1.482       .  S
C2237      C2627   1.465       .  S
C2238      C2462   1.479       .  S
C2239      H2240   1.108       .  S
C2239      C2245   1.626       .  S
C2239      C2244   1.604       .  S
C2239      C2243   1.611       .  S
C2241      H2242   1.092       .  S
C2241      C2247   1.545       .  S
C2241      C2246   1.527       .  S
C2241      C2248   1.527       .  S
C2243      C2246   1.384       .  D
C2243      C2420   1.575       .  S
C2244      C2247   1.369       .  D
C2244      C2389   1.580       .  S
C2245      C2248   1.408       .  D
C2245      C2403   1.558       .  S
C2246      C2714   1.509       .  S
C2247      C2700   1.495       .  S
C2248      C2686   1.552       .  S
C2249      H2250   1.109       .  S
C2249      C2255   1.613       .  S
C2251      H2252   1.110       .  S
C2251      C2258   1.536       .  S
C2253      C2256   1.381       .  D
C2253      C2406   1.555       .  S
C2254      C2257   1.382       .  D
C2254      C2392   1.576       .  S
C2255      C2258   1.388       .  D
C2255      C2417   1.574       .  S
C2256      C2347   1.509       .  S
C2257      C2364   1.508       .  S
C2258      C2378   1.516       .  S
Zn2259     O2263   1.939       .  S
Zn2259     O2264   1.982       .  S
Zn2259     O2268   1.987       .  S
Zn2259     O2275   2.008       .  S
Zn2260     O2263   1.930       .  S
Zn2260     O2265   1.963       .  S
Zn2260     O2267   2.009       .  S
Zn2260     O2271   2.013       .  S
Zn2261     O2263   1.948       .  S
Zn2261     O2266   1.998       .  S
Zn2261     O2269   2.011       .  S
Zn2261     O2272   2.036       .  S
Zn2262     O2263   1.907       .  S
Zn2262     O2270   1.909       .  S
Zn2262     O2273   1.932       .  S
Zn2262     O2274   1.914       .  S
O2264      C2276   1.270       .  A
O2265      C2277   1.268       .  A
O2266      C2278   1.273       .  A
O2267      C2276   1.272       .  A
O2268      C2278   1.269       .  A
O2269      C2277   1.272       .  A
O2270      C2279   1.258       .  A
O2271      C2280   1.274       .  A
O2272      C2279   1.276       .  A
O2273      C2280   1.260       .  A
O2274      C2281   1.260       .  A
O2275      C2281   1.273       .  A
C2276      C2319   1.488       .  S
C2277      C2308   1.482       .  S
C2278      C2333   1.477       .  S
C2279      C2588   1.465       .  S
C2280      C2557   1.466       .  S
C2281      C2571   1.457       .  S
Zn2282     O2286   1.947       .  S
Zn2282     O2287   2.004       .  S
Zn2282     O2291   1.998       .  S
Zn2282     O2298   2.045       .  S
Zn2283     O2286   1.953       .  S
Zn2283     O2288   2.011       .  S
Zn2283     O2290   2.000       .  S
Zn2283     O2294   2.042       .  S
Zn2284     O2286   1.943       .  S
Zn2284     O2289   1.999       .  S
Zn2284     O2292   1.990       .  S
Zn2284     O2295   2.031       .  S
Zn2285     O2286   1.895       .  S
Zn2285     O2293   1.909       .  S
Zn2285     O2296   1.906       .  S
Zn2285     O2297   1.903       .  S
O2287      C2299   1.273       .  A
O2288      C2300   1.274       .  A
O2289      C2301   1.272       .  A
O2290      C2299   1.271       .  A
O2291      C2301   1.272       .  A
O2292      C2300   1.271       .  A
O2293      C2302   1.257       .  A
O2294      C2303   1.276       .  A
O2295      C2302   1.275       .  A
O2296      C2303   1.258       .  A
O2297      C2304   1.258       .  A
O2298      C2304   1.277       .  A
C2299      C2336   1.478       .  S
C2300      C2305   1.481       .  S
C2301      C2322   1.487   1_554  S
C2302      C2375   1.468       .  S
C2303      C2350   1.465       .  S
C2304      C2361   1.465       .  S
C2305      C2306   1.416   1_554  A
C2305      C2310   1.411   1_554  A
C2306      C2307   1.406       .  A
C2306      C2311   1.451       .  S
C2307      C2308   1.412       .  A
C2307      C2314   1.454       .  S
C2308      C2309   1.417       .  A
C2309      C2310   1.409       .  A
C2309      C2312   1.453       .  S
C2310      C2313   1.448   1_556  S
C2311      N2318   1.156       .  T
C2312      N2317   1.158       .  T
C2313      N2315   1.156       .  T
C2314      N2316   1.157       .  T
C2319      C2320   1.419       .  A
C2319      C2324   1.411   1_565  A
C2320      C2325   1.452       .  S
C2321      C2322   1.412       .  A
C2321      C2328   1.452   1_556  S
C2322      C2323   1.420       .  A
C2323      C2326   1.453       .  S
C2324      C2327   1.454       .  S
C2325      N2332   1.157       .  T
C2326      N2331   1.157       .  T
C2327      N2329   1.158       .  T
C2328      N2330   1.157       .  T
C2333      C2338   1.419       .  A
C2334      C2335   1.403       .  A
C2334      C2339   1.453       .  S
C2335      C2336   1.417   1_556  A
C2335      C2342   1.447       .  S
C2337      C2338   1.410       .  A
C2337      C2340   1.451   1_556  S
C2338      C2341   1.452       .  S
C2339      N2346   1.157       .  T
C2340      N2345   1.157       .  T
C2341      N2343   1.157       .  T
C2342      N2344   1.155       .  T
C2347      C2348   1.424       .  A
C2347      C2352   1.418       .  A
C2348      C2349   1.405       .  A
C2348      C2353   1.437   1_655  S
C2349      C2350   1.395       .  A
C2349      C2356   1.457       .  S
C2350      C2351   1.409       .  A
C2351      C2352   1.412       .  A
C2351      C2354   1.455       .  S
C2352      C2355   1.445       .  S
C2354      N2359   1.157       .  T
C2355      N2357   1.156       .  T
C2356      N2358   1.157   1_655  T
C2361      C2362   1.409       .  A
C2361      C2366   1.397       .  A
C2362      C2363   1.409       .  A
C2362      C2367   1.455       .  S
C2363      C2364   1.422       .  A
C2364      C2365   1.425       .  A
C2365      C2366   1.406       .  A
C2366      C2369   1.457       .  S
C2368      N2373   1.153       .  T
C2370      N2372   1.156       .  T
C2375      C2376   1.408       .  A
C2375      C2380   1.392       .  A
C2376      C2377   1.412       .  A
C2376      C2381   1.455       .  S
C2377      C2378   1.427       .  A
C2377      C2384   1.448       .  S
C2378      C2379   1.427       .  A
C2379      C2380   1.404       .  A
C2379      C2382   1.437       .  S
C2380      C2383   1.455       .  S
C2381      N2388   1.157       .  T
C2382      N2387   1.154       .  T
C2383      N2385   1.156       .  T
C2384      N2386   1.157       .  T
C2389      C2390   1.419       .  A
C2389      C2394   1.434       .  A
C2390      C2391   1.446       .  A
C2390      C2395   1.447       .  S
C2391      C2392   1.437       .  A
C2392      C2393   1.417       .  A
C2393      C2394   1.440       .  A
C2394      C2397   1.443       .  S
C2395      N2402   1.157       .  T
C2396      N2401   1.157       .  T
C2397      N2399   1.157   1_655  T
C2398      N2400   1.156       .  T
C2403      C2404   1.418       .  A
C2403      C2408   1.423       .  A
C2404      C2405   1.432       .  A
C2404      C2409   1.445       .  S
C2405      C2406   1.424       .  A
C2405      C2412   1.446   1_655  S
C2406      C2407   1.417       .  A
C2407      C2408   1.436       .  A
C2407      C2410   1.447       .  S
C2408      C2411   1.443       .  S
C2409      N2416   1.157       .  T
C2410      N2415   1.156       .  T
C2411      N2413   1.157       .  T
C2417      C2418   1.420       .  A
C2417      C2422   1.436       .  A
C2418      C2419   1.440       .  A
C2418      C2423   1.448       .  S
C2419      C2420   1.433       .  A
C2419      C2426   1.448       .  S
C2420      C2421   1.421       .  A
C2421      C2422   1.443       .  A
C2421      C2424   1.447       .  S
C2422      C2425   1.448       .  S
C2423      N2430   1.157       .  T
C2424      N2429   1.157       .  T
C2425      N2427   1.157       .  T
C2426      N2428   1.157       .  T
C2431      C2432   1.412       .  A
C2431      C2436   1.419       .  A
C2432      C2433   1.408       .  A
C2432      C2437   1.452   1_655  S
C2433      C2434   1.416       .  A
C2433      C2440   1.452   1_655  S
C2434      C2435   1.413       .  A
C2435      C2436   1.408       .  A
C2435      C2438   1.453       .  S
C2436      C2439   1.453       .  S
C2437      N2444   1.157       .  T
C2438      N2443   1.158       .  T
C2439      N2441   1.157       .  T
C2445      C2446   1.410       .  A
C2445      C2450   1.417       .  A
C2446      C2447   1.408       .  A
C2446      C2451   1.452       .  S
C2447      C2448   1.416       .  A
C2447      C2454   1.452       .  S
C2448      C2449   1.412       .  A
C2449      C2450   1.406       .  A
C2449      C2452   1.453       .  S
C2450      C2453   1.452       .  S
C2451      N2458   1.158       .  T
C2452      N2457   1.157       .  T
C2453      N2455   1.157       .  T
C2459      C2460   1.419       .  A
C2459      C2464   1.412       .  A
C2460      C2461   1.408       .  A
C2460      C2465   1.452       .  S
C2461      C2462   1.412       .  A
C2461      C2468   1.454       .  S
C2462      C2463   1.417       .  A
C2463      C2464   1.408       .  A
C2463      C2466   1.454       .  S
C2464      C2467   1.452       .  S
C2465      N2472   1.157       .  T
C2466      N2471   1.158       .  T
C2467      N2469   1.157       .  T
C2468      N2470   1.158       .  T
C2473      C2474   1.420       .  A
C2473      C2478   1.426       .  A
C2474      C2475   1.410   1_565  A
C2474      C2479   1.445       .  S
C2475      C2482   1.454       .  S
C2476      C2477   1.407       .  A
C2477      C2480   1.446       .  S
C2478      C2481   1.439       .  S
C2479      N2486   1.156       .  T
C2480      N2485   1.154       .  T
C2481      N2483   1.155       .  T
C2482      N2484   1.157       .  T
C2487      C2488   1.427       .  A
C2487      C2492   1.428       .  A
C2488      C2489   1.407       .  A
C2488      C2493   1.451       .  S
C2491      C2492   1.403       .  A
C2491      C2494   1.456       .  S
C2492      C2495   1.441       .  S
C2493      N2500   1.157       .  T
C2495      N2497   1.155       .  T
C2496      N2498   1.157       .  T
C2501      C2502   1.399       .  A
C2501      C2506   1.401       .  A
C2502      C2503   1.406       .  A
C2502      C2507   1.451       .  S
C2503      C2504   1.418       .  A
C2503      C2510   1.441       .  S
C2504      C2505   1.421       .  A
C2505      C2506   1.408       .  A
C2505      C2508   1.441       .  S
C2506      C2509   1.455       .  S
C2507      N2514   1.157       .  T
C2508      N2513   1.155       .  T
C2509      N2511   1.158       .  T
C2510      N2512   1.155       .  T
C2515      C2516   1.434       .  A
C2515      C2520   1.414       .  A
C2516      C2521   1.446       .  S
C2517      C2518   1.411       .  A
C2517      C2524   1.445       .  S
C2518      C2519   1.428       .  A
C2519      C2522   1.445       .  S
C2520      C2523   1.449       .  S
C2521      N2528   1.156       .  T
C2522      N2527   1.156       .  T
C2523      N2525   1.157       .  T
C2524      N2526   1.157       .  T
C2529      C2530   1.415       .  A
C2529      C2534   1.434       .  A
C2530      C2535   1.450       .  S
C2531      C2532   1.442       .  A
C2531      C2538   1.447       .  S
C2532      C2533   1.419       .  A
C2533      C2536   1.450       .  S
C2534      C2537   1.445       .  S
C2535      N2542   1.157       .  T
C2536      N2541   1.157       .  T
C2537      N2539   1.157       .  T
C2538      N2540   1.157       .  T
C2543      C2544   1.420       .  A
C2543      C2548   1.431       .  A
C2544      C2545   1.440       .  A
C2544      C2549   1.443       .  S
C2545      C2546   1.427       .  A
C2545      C2552   1.443       .  S
C2546      C2547   1.413       .  A
C2547      C2548   1.439       .  A
C2547      C2550   1.448       .  S
C2548      C2551   1.440       .  S
C2549      N2556   1.156       .  T
C2550      N2555   1.157       .  T
C2551      N2553   1.156       .  T
C2552      N2554   1.155       .  T
C2557      C2558   1.397       .  A
C2557      C2562   1.407       .  A
C2558      C2559   1.401       .  A
C2558      C2563   1.460       .  S
C2559      C2560   1.425       .  A
C2559      C2566   1.441   1_565  S
C2560      C2561   1.427       .  A
C2561      C2562   1.415       .  A
C2561      C2564   1.448       .  S
C2562      C2565   1.454       .  S
C2563      N2570   1.157       .  T
C2564      N2569   1.157       .  T
C2565      N2567   1.158       .  T
C2566      N2568   1.154       .  T
C2571      C2572   1.397       .  A
C2571      C2576   1.406       .  A
C2572      C2573   1.401       .  A
C2572      C2577   1.459       .  S
C2573      C2574   1.422       .  A
C2573      C2580   1.440       .  S
C2574      C2575   1.423       .  A
C2575      C2576   1.409       .  A
C2575      C2578   1.446   1_565  S
C2576      C2579   1.454       .  S
C2577      N2584   1.158       .  T
C2578      N2583   1.156       .  T
C2579      N2581   1.157       .  T
C2580      N2582   1.154       .  T
C2585      C2586   1.425       .  A
C2585      C2590   1.422       .  A
C2586      C2587   1.413       .  A
C2586      C2591   1.447       .  S
C2587      C2588   1.409       .  A
C2587      C2594   1.455       .  S
C2588      C2589   1.398       .  A
C2589      C2590   1.404       .  A
C2589      C2592   1.458       .  S
C2590      C2593   1.440       .  S
C2591      N2598   1.157       .  T
C2592      N2597   1.157       .  T
C2593      N2595   1.154       .  T
C2594      N2596   1.158       .  T
C2599      C2600   1.426       .  A
C2599      C2604   1.423       .  A
C2600      C2601   1.404       .  A
C2600      C2605   1.439       .  S
C2601      C2602   1.398       .  A
C2601      C2608   1.459       .  S
C2602      C2603   1.410       .  A
C2603      C2604   1.414       .  A
C2604      C2607   1.449       .  S
C2605      N2612   1.154       .  T
C2606      N2611   1.157       .  T
C2607      N2609   1.157       .  T
C2608      N2610   1.158       .  T
C2613      C2614   1.403       .  A
C2613      C2618   1.414       .  A
C2614      C2615   1.404       .  A
C2614      C2619   1.459       .  S
C2615      C2616   1.421       .  A
C2615      C2622   1.439       .  S
C2616      C2617   1.422       .  A
C2617      C2618   1.415       .  A
C2617      C2620   1.448       .  S
C2620      N2625   1.157       .  T
C2621      N2623   1.157       .  T
C2622      N2624   1.154       .  T
C2627      C2628   1.397       .  A
C2627      C2632   1.407       .  A
C2628      C2629   1.399       .  A
C2628      C2633   1.459       .  S
C2629      C2630   1.423       .  A
C2629      C2636   1.440       .  S
C2630      C2631   1.427       .  A
C2631      C2632   1.411       .  A
C2631      C2634   1.449       .  S
C2632      C2635   1.453       .  S
C2633      N2640   1.157       .  T
C2634      N2639   1.157       .  T
C2635      N2637   1.157       .  T
C2636      N2638   1.154       .  T
C2641      C2642   1.417       .  A
C2641      C2646   1.433       .  A
C2642      C2643   1.440       .  A
C2642      C2647   1.450       .  S
C2643      C2644   1.435       .  A
C2643      C2650   1.446       .  S
C2644      C2645   1.417       .  A
C2645      C2646   1.441       .  A
C2646      C2649   1.446       .  S
C2647      N2654   1.157       .  T
C2648      N2653   1.157       .  T
C2649      N2651   1.156   1_565  T
C2655      C2656   1.417       .  A
C2655      C2660   1.433       .  A
C2656      C2657   1.437       .  A
C2656      C2661   1.449       .  S
C2657      C2658   1.434       .  A
C2657      C2664   1.447       .  S
C2658      C2659   1.418       .  A
C2659      C2660   1.438       .  A
C2659      C2662   1.449       .  S
C2660      C2663   1.448       .  S
C2661      N2668   1.157       .  T
C2662      N2667   1.157       .  T
C2663      N2665   1.157       .  T
C2664      N2666   1.157   1_565  T
C2669      C2670   1.418       .  A
C2669      C2674   1.433       .  A
C2670      C2671   1.442       .  A
C2671      C2672   1.435       .  A
C2671      C2678   1.447       .  S
C2672      C2673   1.419       .  A
C2673      C2674   1.440       .  A
C2673      C2676   1.448       .  S
C2674      C2677   1.446       .  S
C2675      N2682   1.156       .  T
C2676      N2681   1.157       .  T
C2677      N2679   1.156       .  T
C2678      N2680   1.157       .  T
C2683      C2684   1.421       .  A
C2683      C2688   1.416       .  A
C2684      C2685   1.426       .  A
C2684      C2689   1.453       .  S
C2685      C2686   1.421       .  A
C2685      C2692   1.439       .  S
C2686      C2687   1.422       .  A
C2687      C2688   1.405       .  A
C2687      C2690   1.448       .  S
C2688      C2691   1.454       .  S
C2689      N2696   1.158       .  T
C2690      N2695   1.158       .  T
C2691      N2693   1.158   1_655  T
C2692      N2694   1.155       .  T
C2697      C2698   1.414       .  A
C2697      C2702   1.412       .  A
C2698      C2699   1.406       .  A
C2698      C2703   1.447       .  S
C2699      C2700   1.411       .  A
C2699      C2706   1.450       .  S
C2700      C2701   1.413       .  A
C2701      C2702   1.408       .  A
C2701      C2704   1.450       .  S
C2702      C2705   1.451       .  S
C2703      N2710   1.156       .  T
C2704      N2709   1.158       .  T
C2706      N2708   1.157       .  T
C2711      C2712   1.399       .  A
C2711      C2716   1.411       .  A
C2712      C2713   1.402       .  A
C2712      C2717   1.456       .  S
C2713      C2714   1.424       .  A
C2713      C2720   1.444       .  S
C2714      C2715   1.422       .  A
C2715      C2716   1.408       .  A
C2715      C2718   1.446       .  S
C2716      C2719   1.456       .  S
C2717      N2724   1.157       .  T
C2718      N2723   1.157       .  T
C2719      N2721   1.158       .  T
C2720      N2722   1.155       .  T
C2725      C2726   1.420       .  A
C2725      C2730   1.416       .  A
C2726      C2727   1.407       .  A
C2726      C2731   1.448       .  S
C2727      C2728   1.405       .  A
C2728      C2729   1.414       .  A
C2729      C2730   1.415       .  A
C2729      C2732   1.451       .  S
C2730      C2733   1.451       .  S
C2733      N2735   1.158       .  T
C2734      N2736   1.157       .  T
C2739      C2740   1.416       .  A
C2739      C2744   1.420       .  A
C2740      C2741   1.411       .  A
C2740      C2745   1.453       .  S
C2741      C2742   1.415       .  A
C2741      C2748   1.451       .  S
C2742      C2743   1.410       .  A
C2743      C2744   1.406       .  A
C2744      C2747   1.452       .  S
C2745      N2752   1.158       .  T
C2746      N2751   1.157   1_455  T
C2747      N2749   1.157       .  T
C2748      N2750   1.157       .  T
C2753      C2754   1.413       .  A
C2753      C2758   1.407       .  A
C2754      C2755   1.414       .  A
C2754      C2759   1.451   1_565  S
C2755      C2756   1.416       .  A
C2755      C2762   1.450   1_565  S
C2756      C2757   1.418       .  A
C2757      C2758   1.406       .  A
C2757      C2760   1.448       .  S
C2758      C2761   1.454       .  S
C2759      N2766   1.158       .  T
C2760      N2765   1.155       .  T
C2761      N2763   1.157       .  T
C2762      N2764   1.157       .  T
C2767      C2768   1.418       .  A
C2767      C2772   1.424       .  A
C2768      C2773   1.439       .  S
C2769      C2770   1.403       .  A
C2769      C2776   1.456       .  S
C2771      C2772   1.406       .  A
C2771      C2774   1.455       .  S
C2772      C2775   1.441       .  S
C2773      N2780   1.154       .  T
C2774      N2779   1.157       .  T
C2775      N2777   1.155       .  T
C2776      N2778   1.158       .  T
C2782      C2783   1.405       .  A
C2783      C2784   1.415       .  A
C2783      C2790   1.451       .  S
C2784      C2785   1.412       .  A
C2785      C2786   1.404   1_655  A
C2785      C2788   1.449       .  S
C2787      N2794   1.157       .  T
C2788      N2793   1.157       .  T
C2789      N2791   1.157       .  T
C2790      N2792   1.158       .  T
C2795      C2796   1.447       .  A
C2795      C2800   1.403       .  A
C2796      C2797   1.417       .  A
C2796      C2801   1.448       .  S
C2797      C2798   1.406       .  A
C2797      C2804   1.456       .  S
C2798      C2799   1.419       .  A
C2799      C2800   1.408       .  A
C2799      C2802   1.446       .  S
C2800      C2803   1.443       .  S
C2801      N2808   1.158       .  T
C2802      N2807   1.156       .  T
C2803      N2805   1.157       .  T
C2804      N2806   1.157       .  T
