geometry optimzed in LAMMPS
_audit_creation_date              2020-11-30 
_audit_creation_method            'lammps2cif' 
_symmetry_space_group_name_H-M    'P1' 
_symmetry_Int_Tables_number       1 
_symmetry_cell_setting            triclinic 
loop_ 
_symmetry_equiv_pos_as_xyz 
  x,y,z 
_cell_length_a                    31.00126386 
_cell_length_b                    30.99666785215107 
_cell_length_c                    44.96522527510552 
_cell_angle_alpha                 89.95973355324986 
_cell_angle_beta                  90.02552399911983 
_cell_angle_gamma                 90.49639540109162 
loop_ 
_atom_site_label 
_atom_site_type_symbol 
_atom_site_fract_x 
_atom_site_fract_y 
_atom_site_fract_z 
_atom_site_charge 
C1          C  0.98655816  0.86754399  0.43185346     0.42400
N2          N  0.00861166  0.90777193  0.46773237     0.01300
C3          C  0.88637943  0.04274719  0.05603543    -0.06600
H4          H  0.88104513  0.07714168  0.44146142     0.06800
C5          C  0.04277038  0.10914105  0.44681358    -0.06900
Co6        Co  0.93525482  0.94731877  0.50078305     0.74200
N7          N  0.90917997  0.02720991  0.46848487    -0.26100
Co8        Co  0.94587997  0.05867675  0.00097236     0.74100
C9          C  0.00563659  0.12930666  0.43267242     0.42500
N10         N  0.08722368  0.01187207  0.46831273     0.00900
N11         N  0.98364976  0.08904602  0.46853968     0.01000
N12         N  0.88037177  0.96997623  0.05508147    -0.46900
H13         H  0.91533736  0.88282258  0.44188893     0.06800
N14         N  0.90516600  0.98479915  0.46846882     0.01300
N15         N  0.98348972  0.08858053  0.03357560     0.01100
C16         C  0.00450521  0.12837148  0.06997755     0.42700
N17         N  0.08311748  0.96947484  0.46811374    -0.25500
C18         C  0.95033212  0.88571543  0.05447898    -0.06500
N19         N  0.02212470  0.88167652  0.44641357    -0.46600
N20         N  0.96942364  0.11440380  0.05485843    -0.46900
C21         C  0.98775544  0.86530299  0.06819099     0.42400
N22         N  0.90577074  0.98439626  0.03352524     0.01300
N23         N  0.08340266  0.96882136  0.03303217    -0.25600
N24         N  0.96622311  0.91134812  0.46820257    -0.26100
N25         N  0.08726733  0.01126108  0.03323334     0.01000
H26         H  0.11186374  0.91879828  0.05985493     0.06800
H27         H  0.07603218  0.11305533  0.06072408     0.06900
N28         N  0.90965487  0.02681813  0.03348314    -0.26100
N29         N  0.02598916  0.08506104  0.46873937    -0.25700
N30         N  0.00912397  0.90677230  0.03276992     0.01300
C31         C  0.86500832  0.00544223  0.43232008     0.42700
C32         C  0.10758755  0.95358114  0.44616271    -0.07000
N33         N  0.02586535  0.08490016  0.03354658    -0.25700
H34         H  0.07681190  0.11315453  0.44226838     0.06900
N35         N  0.87889556  0.97050493  0.44737604    -0.46900
H36         H  0.11178354  0.91970799  0.44134922     0.06800
C37         C  0.12761651  0.99048759  0.06923883     0.42500
C38         C  0.94938145  0.88708145  0.44636722    -0.06500
Co39       Co  0.04661053  0.93746196  0.50041193     0.73800
N40         N  0.11406843  0.02627821  0.44758633    -0.46700
C41         C  0.86708902  0.00488036  0.07042081     0.42800
N42         N  0.02300085  0.87973549  0.05342476    -0.46600
Co43       Co  0.05725467  0.04881850  0.00097694     0.73900
C44         C  0.04211507  0.10892882  0.05577313    -0.07000
C45         C  0.88502034  0.04325494  0.44636198    -0.06500
N46         N  0.96676833  0.91062465  0.03282206    -0.26100
N47         N  0.97011739  0.11559457  0.44747269    -0.46800
H48         H  0.88275754  0.07660095  0.06114396     0.06800
C49         C  0.10767809  0.95270131  0.05508913    -0.07000
Cl50       Cl  0.99627337  0.99805488  0.00078190    -0.50000
C51         C  0.12809476  0.99141972  0.43251137     0.42600
H52         H  0.91635800  0.88131818  0.05910205     0.06800
N53         N  0.11360155  0.02547821  0.05430641    -0.46700
C54         C  0.99623481  0.53701181  0.23536865     0.02300
C55         C  0.99657849  0.53719811  0.26686639     0.02200
C56         C  0.99857672  0.49780390  0.28220928    -0.18300
C57         C  0.99987521  0.45829268  0.26699684     0.02300
C58         C  0.99879456  0.45804274  0.23552937     0.02200
C59         C  0.99720093  0.49743941  0.22015810    -0.18300
H60         H  0.99659157  0.49729737  0.19604513     0.04300
H61         H  0.99911625  0.49788137  0.30632464     0.04300
C62         C  0.53716076  0.99759382  0.26512465     0.02300
C63         C  0.53637793  0.99760469  0.23366313     0.02200
C64         C  0.49646860  0.99864742  0.21882665    -0.18300
C65         C  0.45728136  0.99936172  0.23460622     0.02300
C66         C  0.45819943  0.99912918  0.26613992     0.02200
C67         C  0.49813996  0.99830904  0.28089724    -0.18300
H68         H  0.49888868  0.99807700  0.30500882     0.04300
H69         H  0.49590550  0.99873800  0.19471700     0.04300
C70         C  0.16105381  0.99187469  0.09280129    -0.03400
C71         C  0.17386695  0.95416981  0.10768815    -0.09100
C72         C  0.20721162  0.95569141  0.12874126    -0.16800
C73         C  0.22814569  0.99485619  0.13515812     0.25300
C74         C  0.21486843  0.03263581  0.12090511    -0.18500
C75         C  0.18151693  0.03120641  0.09995834    -0.07400
C76         C  0.26474178  0.99608092  0.15503941    -0.13800
C77         C  0.29700310  0.99734713  0.17013365    -0.13600
C78         C  0.33711805  0.99823349  0.18648290     0.25200
C79         C  0.34564517  0.03087209  0.20728694    -0.19000
C80         C  0.38495854  0.03178415  0.22268442    -0.07400
C81         C  0.41608555  0.99985230  0.21759138    -0.03500
C82         C  0.40748770  0.96759422  0.19641342    -0.08800
C83         C  0.36825939  0.96675388  0.18103278    -0.16500
H84         H  0.15859372  0.92345388  0.10283898     0.11700
H85         H  0.21718870  0.92619609  0.13959814     0.11000
H86         H  0.23082987  0.06311515  0.12558119     0.10900
H87         H  0.17235163  0.06081187  0.08891882     0.11400
H88         H  0.32198487  0.05562244  0.21156046     0.11500
H89         H  0.39106373  0.05727669  0.23863498     0.11500
H90         H  0.43092332  0.94264089  0.19213693     0.11600
H91         H  0.36218889  0.94147432  0.16489904     0.10400
C92         C  0.16353360  0.99249514  0.41041453    -0.03400
C93         C  0.18318586  0.03198714  0.40262067    -0.09100
C94         C  0.21870622  0.03302933  0.38343684    -0.16800
C95         C  0.23497645  0.99466509  0.37167991     0.25300
C96         C  0.21499652  0.95529312  0.37876840    -0.18500
C97         C  0.17945946  0.95417667  0.39796800    -0.07400
C98         C  0.27267129  0.99565379  0.35288682    -0.13800
C99         C  0.30463361  0.99649919  0.33754804    -0.13600
C100        C  0.34304528  0.99731473  0.31946326     0.25200
C101        C  0.34919021  0.96583777  0.29757565    -0.19000
C102        C  0.38663655  0.96630515  0.28022283    -0.07400
C103        C  0.41822636  0.99855091  0.28436844    -0.03500
C104        C  0.41196983  0.02991013  0.30648306    -0.08800
C105        C  0.37456623  0.02932264  0.32388979    -0.16500
H106        H  0.17160126  0.06204658  0.41177601     0.11700
H107        H  0.23381163  0.06370908  0.37808241     0.11000
H108        H  0.22721870  0.92538398  0.36975174     0.10900
H109        H  0.16501137  0.92327037  0.40337797     0.11400
H110        H  0.32514424  0.94079582  0.29402987     0.11500
H111        H  0.39108600  0.94139296  0.26366256     0.11500
H112        H  0.43594307  0.05499009  0.31011093     0.11600
H113        H  0.37024862  0.05378800  0.34079944     0.10400
C114        C  0.83433174  0.00358670  0.09435988    -0.03400
C115        C  0.81573244  0.96397272  0.10298073    -0.09100
C116        C  0.78208505  0.96270411  0.12366993    -0.16800
C117        C  0.76669657  0.00095549  0.13612912     0.25300
C118        C  0.78611536  0.04041230  0.12853298    -0.18500
C119        C  0.81979399  0.04175677  0.10780552    -0.07400
C120        C  0.72921715  0.99986536  0.15508600    -0.13800
C121        C  0.69625174  0.99875595  0.16935389    -0.13600
C122        C  0.65572399  0.99772827  0.18505954     0.26200
C123        C  0.62516445  0.02993214  0.17996595    -0.19000
C124        C  0.58587532  0.02926017  0.19525946    -0.07400
C125        C  0.57678324  0.99644799  0.21593493    -0.03500
C126        C  0.60714103  0.96360263  0.22040153    -0.08800
C127        C  0.64646529  0.96436352  0.20514227    -0.16500
H128        H  0.82639923  0.93401886  0.09314472     0.11700
H129        H  0.76733828  0.93198039  0.12936472     0.11000
H130        H  0.77450500  0.07024279  0.13805119     0.10900
H131        H  0.83363124  0.07273140  0.10184997     0.11400
H132        H  0.63185018  0.05575526  0.16434050     0.11500
H133        H  0.56296168  0.05487331  0.19148818     0.11500
H134        H  0.60055616  0.93768031  0.23595227     0.11600
H135        H  0.66967689  0.93906344  0.20908950     0.10400
C136        C  0.57822346  0.99767100  0.28212025    -0.03400
C137        C  0.58724157  0.96399494  0.30202878    -0.09100
C138        C  0.62598247  0.96385302  0.31801082    -0.16800
C139        C  0.65598710  0.99751819  0.31442427     0.25300
C140        C  0.64718750  0.03114721  0.29455442    -0.18500
C141        C  0.60850846  0.03126088  0.27849907    -0.07400
C142        C  0.69502316  0.99830307  0.33189944    -0.13800
C143        C  0.72672173  0.99940323  0.34751618    -0.13600
C144        C  0.76323501  0.00091368  0.36740636     0.25200
C145        C  0.78145953  0.04063483  0.37568932    -0.19000
C146        C  0.81529138  0.04225247  0.39632188    -0.07400
C147        C  0.83123071  0.00408570  0.40900786    -0.03500
C148        C  0.81336459  0.96428092  0.40005621    -0.08800
C149        C  0.77956684  0.96273656  0.37944600    -0.16500
H150        H  0.56437477  0.93773292  0.30502474     0.11700
H151        H  0.63237554  0.93769157  0.33333862     0.11000
H152        H  0.67003594  0.05745963  0.29167299     0.10900
H153        H  0.60203134  0.05764626  0.26338606     0.11400
H154        H  0.76908067  0.07041758  0.36654387     0.11500
H155        H  0.82837259  0.07338623  0.40264639     0.11500
H156        H  0.82501359  0.93432357  0.40936569     0.11600
H157        H  0.76574307  0.93180188  0.37325368     0.10400
C158        C  0.00359138  0.16204556  0.09333416    -0.03400
C159        C  0.96395837  0.17619340  0.10483773    -0.09100
C160        C  0.96262023  0.21026049  0.12524015    -0.16800
C161        C  0.00085637  0.23065109  0.13440484     0.25300
C162        C  0.04050157  0.21598879  0.12365720    -0.18500
C163        C  0.04191742  0.18183614  0.10333590    -0.07400
C164        C  0.99941560  0.26780694  0.15370889    -0.13800
C165        C  0.99884939  0.30004169  0.16879716    -0.13600
C166        C  0.99875974  0.33951022  0.18582402     0.25200
C167        C  0.03297064  0.34921869  0.20514156    -0.19000
C168        C  0.03328086  0.38791175  0.22119513    -0.07400
C169        C  0.99927985  0.41730003  0.21815049    -0.03500
C170        C  0.96523341  0.40752454  0.19858556    -0.08800
C171        C  0.96491722  0.36880641  0.18259459    -0.16500
H172        H  0.93392099  0.16141885  0.09766919     0.11700
H173        H  0.93172993  0.22123189  0.13340401     0.11000
H174        H  0.07031836  0.23150594  0.13055225     0.10900
H175        H  0.07293601  0.17177514  0.09494541     0.11400
H176        H  0.05946420  0.32696014  0.20771600     0.11500
H177        H  0.06001708  0.39498470  0.23596708     0.11500
H178        H  0.93867276  0.42968820  0.19597903     0.11600
H179        H  0.93833409  0.36176533  0.16767001     0.10400
C180        C  0.00608884  0.16378670  0.40995347    -0.03400
C181        C  0.04493510  0.17679231  0.39633126    -0.09100
C182        C  0.04564464  0.21149103  0.37644053    -0.16800
C183        C  0.00757428  0.23348384  0.36988706     0.25300
C184        C  0.96863175  0.22009106  0.38279880    -0.18500
C185        C  0.96783946  0.18538225  0.40265644    -0.07400
C186        C  0.00850792  0.27062877  0.35069611    -0.13800
C187        C  0.00817144  0.30259978  0.33543012    -0.13600
C188        C  0.00641397  0.34141581  0.31793600     0.25200
C189        C  0.03792645  0.37362229  0.32152399    -0.19000
C190        C  0.03562523  0.41174250  0.30499035    -0.07400
C191        C  0.00186832  0.41793423  0.28461838    -0.03500
C192        C  0.97015644  0.38563919  0.28130121    -0.08800
C193        C  0.97252727  0.34751273  0.29781454    -0.16500
H194        H  0.07489576  0.16066153  0.40129158     0.11700
H195        H  0.07595413  0.22154223  0.36652068     0.11000
H196        H  0.93897211  0.23689446  0.37786195     0.10900
H197        H  0.93745969  0.17604643  0.41276265     0.11400
H198        H  0.06417048  0.36931564  0.33713615     0.11500
H199        H  0.06034920  0.43629464  0.30787506     0.11500
H200        H  0.94354925  0.39004427  0.26601686     0.11600
H201        H  0.94781368  0.32291694  0.29502663     0.10400
C202        C  0.98810463  0.83056322  0.09079885    -0.03400
C203        C  0.94931895  0.81390322  0.10251523    -0.09100
C204        C  0.94982038  0.77944552  0.12263007    -0.16800
C205        C  0.98902820  0.76130122  0.13137299     0.25300
C206        C  0.02781165  0.77821258  0.12024361    -0.18500
C207        C  0.02738168  0.81263397  0.10010503    -0.07400
C208        C  0.98944179  0.72446500  0.15095036    -0.13800
C209        C  0.99017165  0.69270922  0.16648605    -0.13600
C210        C  0.99168767  0.65387407  0.18408834     0.25200
C211        C  0.95909990  0.64465970  0.20477469    -0.19000
C212        C  0.96038864  0.60657211  0.22147439    -0.07400
C213        C  0.99440473  0.57739744  0.21771040    -0.03500
C214        C  0.02684180  0.58673067  0.19681916    -0.08800
C215        C  0.02554120  0.62480807  0.18017063    -0.16500
H216        H  0.91853540  0.82694908  0.09587612     0.11700
H217        H  0.91959092  0.76660645  0.13106779     0.11000
H218        H  0.05836013  0.76442678  0.12682582     0.10900
H219        H  0.05776329  0.82482121  0.09151164     0.11400
H220        H  0.93263916  0.66680049  0.20790094     0.11500
H221        H  0.93482363  0.59974572  0.23723986     0.11500
H222        H  0.05334581  0.56467132  0.19361432     0.11600
H223        H  0.05087956  0.63153560  0.16419769     0.10400
C224        C  0.99528628  0.57778770  0.28439276    -0.03400
C225        C  0.96298517  0.58369613  0.30589336    -0.09100
C226        C  0.96139771  0.62186114  0.32242414    -0.16800
C227        C  0.99217372  0.65450529  0.31775867     0.25300
C228        C  0.02466972  0.64869802  0.29653293    -0.18500
C229        C  0.02632322  0.61050480  0.28000286    -0.07400
C230        C  0.99070068  0.69361851  0.33506000    -0.13800
C231        C  0.98943535  0.72576870  0.35016760    -0.13600
C232        C  0.98805441  0.76314692  0.36920554     0.25200
C233        C  0.02562428  0.78728187  0.37465448    -0.19000
C234        C  0.02488172  0.82192843  0.39458338    -0.07400
C235        C  0.98646418  0.83300610  0.40917840    -0.03500
C236        C  0.94859116  0.80936500  0.40296975    -0.08800
C237        C  0.94947025  0.77452553  0.38321570    -0.16500
H238        H  0.93878287  0.55888012  0.30966636     0.11700
H239        H  0.93619243  0.62589901  0.33884624     0.11000
H240        H  0.04881321  0.67360478  0.29284434     0.10900
H241        H  0.05188114  0.60638324  0.26387253     0.11400
H242        H  0.05566490  0.77884271  0.36391442     0.11500
H243        H  0.05445242  0.83973238  0.39886211     0.11500
H244        H  0.91855689  0.81690243  0.41397473     0.11600
H245        H  0.92021237  0.75603420  0.37924584     0.10400
C246        C  0.98658248  0.86754184  0.93182915     0.42400
N247        N  0.00863201  0.90778276  0.96770240     0.01300
C248        C  0.88635604  0.04278007  0.55602993    -0.06600
H249        H  0.88104405  0.07709959  0.94144984     0.06800
C250        C  0.04274691  0.10914239  0.94681155    -0.06900
Co251      Co  0.93527343  0.94729044  0.00077865     0.74200
N252        N  0.90917282  0.02717622  0.96848382    -0.26100
Co253      Co  0.94588855  0.05869938  0.50097515     0.74100
C254        C  0.00561135  0.12929584  0.93266607     0.42500
N255        N  0.08722607  0.01190029  0.96829532     0.00900
N256        N  0.98362825  0.08903559  0.96853417     0.01000
N257        N  0.88033974  0.97001003  0.55506549    -0.46900
H258        H  0.91535754  0.88277522  0.94188545     0.06800
N259        N  0.90516147  0.98476513  0.96847119     0.01300
N260        N  0.98350161  0.08858796  0.53357976     0.01100
C261        C  0.00452180  0.12834292  0.56999711     0.42700
N262        N  0.08311657  0.96950420  0.96808534    -0.25500
C263        C  0.95025511  0.88575024  0.55449036    -0.06500
N264        N  0.02214806  0.88169525  0.94638009    -0.46600
N265        N  0.96943877  0.11439837  0.55487033    -0.46900
C266        C  0.98765803  0.86533405  0.56822508     0.42400
N267        N  0.90575065  0.98443206  0.53351834     0.01300
N268        N  0.08338289  0.96881705  0.53305902    -0.25600
N269        N  0.96624122  0.91133444  0.96818543    -0.26100
N270        N  0.08725991  0.01125584  0.53324593     0.01000
H271        H  0.11185689  0.91880382  0.55988485     0.06800
H272        H  0.07604578  0.11300869  0.56074735     0.06900
N273        N  0.90964269  0.02685294  0.53348137    -0.26100
N274        N  0.02596896  0.08506274  0.96873662    -0.25700
N275        N  0.00907395  0.90678826  0.53280549     0.01300
C276        C  0.86501295  0.00539756  0.93231401     0.42700
C277        C  0.10757517  0.95361875  0.94612693    -0.07000
N278        N  0.02587592  0.08489629  0.53355245    -0.25700
H279        H  0.07678843  0.11315790  0.94226809     0.06900
N280        N  0.87889800  0.97046440  0.94737585    -0.46900
H281        H  0.11176919  0.91974706  0.94130790     0.06800
C282        C  0.12762843  0.99049647  0.56924262     0.42500
C283        C  0.94940172  0.88705687  0.94635415    -0.06500
Co284      Co  0.04663245  0.93747156  0.00038019     0.73800
N285        N  0.11406894  0.02631411  0.94756948    -0.46700
C286        C  0.86705348  0.00490992  0.57040512     0.42800
N287        N  0.02292320  0.87975631  0.55347380    -0.46600
Co288      Co  0.05725923  0.04880854  0.50098519     0.73900
C289        C  0.04212872  0.10890165  0.55578922    -0.07000
C290        C  0.88501870  0.04321433  0.94635542    -0.06500
N291        N  0.96671904  0.91064939  0.53283809    -0.26100
N292        N  0.97009135  0.11557756  0.94746380    -0.46800
H293        H  0.88273311  0.07663281  0.56114177     0.06800
C294        C  0.10766803  0.95270495  0.55511385    -0.07000
Cl295      Cl  0.99626704  0.99806245  0.50079312    -0.50000
C296        C  0.12808429  0.99146001  0.93248351     0.42600
H297        H  0.91627550  0.88136973  0.55910134     0.06800
N298        N  0.11361368  0.02547982  0.55430411    -0.46700
C299        C  0.99616865  0.53697601  0.73536407     0.02300
C300        C  0.99655931  0.53715634  0.76686218     0.02200
C301        C  0.99860277  0.49775938  0.78219946    -0.18300
C302        C  0.99990150  0.45825517  0.76698052     0.02300
C303        C  0.99877555  0.45801189  0.73551548     0.02200
C304        C  0.99713118  0.49740788  0.72014874    -0.18300
H305        H  0.99648948  0.49726920  0.69603613     0.04300
H306        H  0.99918065  0.49782852  0.80631442     0.04300
C307        C  0.53717384  0.99754560  0.76511584     0.02300
C308        C  0.53638206  0.99754608  0.73365491     0.02200
C309        C  0.49646996  0.99859255  0.71882353    -0.18300
C310        C  0.45728734  0.99930882  0.73460793     0.02300
C311        C  0.45821421  0.99906484  0.76614170     0.02200
C312        C  0.49815864  0.99825207  0.78089329    -0.18300
H313        H  0.49891542  0.99801829  0.80500476     0.04300
H314        H  0.49590141  0.99868546  0.69471392     0.04300
C315        C  0.16109236  0.99189486  0.59278407    -0.03400
C316        C  0.17385166  0.95421297  0.60771978    -0.09100
C317        C  0.20720205  0.95574586  0.62876736    -0.16800
C318        C  0.22819612  0.99489836  0.63512695     0.25300
C319        C  0.21498498  0.03265483  0.62081592    -0.18500
C320        C  0.18162634  0.03121501  0.59987619    -0.07400
C321        C  0.26477819  0.99612937  0.65501714    -0.13800
C322        C  0.29702747  0.99738908  0.67012166    -0.13600
C323        C  0.33713322  0.99825071  0.68647806     0.25200
C324        C  0.34564410  0.03084423  0.70731802    -0.19000
C325        C  0.38495396  0.03173353  0.72271913    -0.07400
C326        C  0.41608982  0.99981983  0.71759624    -0.03500
C327        C  0.40750514  0.96760621  0.69638373    -0.08800
C328        C  0.36828274  0.96679151  0.68099748    -0.16500
H329        H  0.15852369  0.92350785  0.60291846     0.11700
H330        H  0.21713132  0.92626851  0.63966881     0.11000
H331        H  0.23099726  0.06312282  0.62544585     0.10900
H332        H  0.17250683  0.06080176  0.58879425     0.11400
H333        H  0.32197579  0.05557848  0.71161490     0.11500
H334        H  0.39105003  0.05719537  0.73869446     0.11500
H335        H  0.43094761  0.94266826  0.69208254     0.11600
H336        H  0.36222325  0.94154774  0.66483522     0.10400
C337        C  0.16353197  0.99252582  0.91039431    -0.03400
C338        C  0.18329536  0.03199299  0.90267372    -0.09100
C339        C  0.21882997  0.03300601  0.88350180    -0.16800
C340        C  0.23499936  0.99463817  0.87168274     0.25300
C341        C  0.21490655  0.95529580  0.87869622    -0.18500
C342        C  0.17935777  0.95420824  0.89788459    -0.07400
C343        C  0.27270328  0.99558903  0.85289972    -0.13800
C344        C  0.30467007  0.99640787  0.83756621    -0.13600
C345        C  0.34308310  0.99721560  0.81948491     0.25200
C346        C  0.34920678  0.96576505  0.79757632    -0.19000
C347        C  0.38664724  0.96624093  0.78021771    -0.07400
C348        C  0.41824930  0.99847119  0.78437779    -0.03500
C349        C  0.41201497  0.02979973  0.80651606    -0.08800
C350        C  0.37461961  0.02920167  0.82392946    -0.16500
H351        H  0.17179008  0.06205086  0.91187984     0.11700
H352        H  0.23402436  0.06366340  0.87820484     0.11000
H353        H  0.22704901  0.92538536  0.86962942     0.10900
H354        H  0.16481917  0.92332173  0.90323422     0.11400
H355        H  0.32514744  0.94074008  0.79401681     0.11500
H356        H  0.39108067  0.94134985  0.76364020     0.11500
H357        H  0.43599809  0.05486643  0.81015628     0.11600
H358        H  0.37031761  0.05364578  0.84085575     0.10400
C359        C  0.83429663  0.00359845  0.59434170    -0.03400
C360        C  0.81568185  0.96397723  0.60293126    -0.09100
C361        C  0.78204519  0.96268583  0.62362605    -0.16800
C362        C  0.76668371  0.00092094  0.63612285     0.25300
C363        C  0.78611357  0.04038437  0.62855528    -0.18500
C364        C  0.81978170  0.04175201  0.60782020    -0.07400
C365        C  0.72921557  0.99980867  0.65508670    -0.13800
C366        C  0.69625218  0.99868020  0.66935412    -0.13600
C367        C  0.65572078  0.99764533  0.68505123     0.26200
C368        C  0.62514797  0.02982759  0.67993321    -0.19000
C369        C  0.58585909  0.02916086  0.69522525    -0.07400
C370        C  0.57678106  0.99637445  0.71592253    -0.03500
C371        C  0.60714787  0.96354242  0.72040743    -0.08800
C372        C  0.64647359  0.96430011  0.70515119    -0.16500
H373        H  0.82632958  0.93403539  0.59306778     0.11700
H374        H  0.76728659  0.93195834  0.62929709     0.11000
H375        H  0.77452058  0.07020232  0.63810241     0.10900
H376        H  0.83363220  0.07273011  0.60188702     0.11400
H377        H  0.63182534  0.05563304  0.66429224     0.11500
H378        H  0.56293670  0.05476110  0.69143762     0.11500
H379        H  0.60057093  0.93763604  0.73597228     0.11600
H380        H  0.66969575  0.93901524  0.70911544     0.10400
C381        C  0.57823951  0.99763851  0.78210693    -0.03400
C382        C  0.58727061  0.96396703  0.80201564    -0.09100
C383        C  0.62601403  0.96383726  0.81799401    -0.16800
C384        C  0.65600855  0.99751038  0.81440414     0.25300
C385        C  0.64719507  0.03113713  0.79453502    -0.18500
C386        C  0.60851321  0.03123790  0.77848215    -0.07400
C387        C  0.69505081  0.99829921  0.83187295    -0.13800
C388        C  0.72675275  0.99938841  0.84748698    -0.13600
C389        C  0.76326641  0.00088129  0.86737787     0.25200
C390        C  0.78157497  0.04058909  0.87560411    -0.19000
C391        C  0.81539869  0.04219845  0.89624335    -0.07400
C392        C  0.83124776  0.00403721  0.90899222    -0.03500
C393        C  0.81330303  0.96424183  0.90009347    -0.08800
C394        C  0.77951102  0.96270590  0.87947792    -0.16500
H395        H  0.56441229  0.93769819  0.80501395     0.11700
H396        H  0.63241782  0.93767757  0.83332101     0.11000
H397        H  0.67003566  0.05745573  0.79165100     0.10900
H398        H  0.60202538  0.05761948  0.76336818     0.11400
H399        H  0.76926614  0.07037028  0.86641052     0.11500
H400        H  0.82854619  0.07332422  0.90252257     0.11500
H401        H  0.82488151  0.93428832  0.90945139     0.11600
H402        H  0.76562207  0.93178128  0.87332969     0.10400
C403        C  0.00361349  0.16199756  0.59336484    -0.03400
C404        C  0.96397846  0.17620333  0.60482968    -0.09100
C405        C  0.96265043  0.21026718  0.62523346    -0.16800
C406        C  0.00089886  0.23059273  0.63443957     0.25300
C407        C  0.04054443  0.21586579  0.62373664    -0.18500
C408        C  0.04194985  0.18171752  0.60341248    -0.07400
C409        C  0.99947171  0.26775605  0.65373386    -0.13800
C410        C  0.99890560  0.30000036  0.66881023    -0.13600
C411        C  0.99880312  0.33947776  0.68582335     0.25200
C412        C  0.03304401  0.34924078  0.70510216    -0.19000
C413        C  0.03333202  0.38793659  0.72115077    -0.07400
C414        C  0.99928103  0.41727282  0.71813709    -0.03500
C415        C  0.96520635  0.40744584  0.69860835    -0.08800
C416        C  0.96491117  0.36872331  0.68262344    -0.16500
H417        H  0.93393291  0.16148250  0.59762590     0.11700
H418        H  0.93176011  0.22129029  0.63336347     0.11000
H419        H  0.07037036  0.23133259  0.63066583     0.10900
H420        H  0.07297050  0.17160681  0.59505489     0.11400
H421        H  0.05957509  0.32702098  0.70765237     0.11500
H422        H  0.06008907  0.39505219  0.73589543     0.11500
H423        H  0.93860809  0.42957065  0.69602726     0.11600
H424        H  0.93830464  0.36163786  0.66772833     0.10400
C425        C  0.00606993  0.16377047  0.90994373    -0.03400
C426        C  0.04493936  0.17683792  0.89638032    -0.09100
C427        C  0.04565907  0.21153560  0.87649140    -0.16800
C428        C  0.00757573  0.23346484  0.86987691     0.25300
C429        C  0.96860975  0.22000937  0.88272638    -0.18500
C430        C  0.96780792  0.18530147  0.90258600    -0.07400
C431        C  0.00852343  0.27060735  0.85068546    -0.13800
C432        C  0.00821521  0.30257117  0.83541276    -0.13600
C433        C  0.00647487  0.34137457  0.81790598     0.25200
C434        C  0.03804249  0.37353997  0.82144291    -0.19000
C435        C  0.03573614  0.41166189  0.80491074    -0.07400
C436        C  0.00192133  0.41789104  0.78459079    -0.03500
C437        C  0.97016818  0.38562924  0.78131454    -0.08800
C438        C  0.97254032  0.34750521  0.79782876    -0.16500
H439        H  0.07491233  0.16076064  0.90138722     0.11700
H440        H  0.07598623  0.22163593  0.86662018     0.11000
H441        H  0.93893917  0.23676345  0.87774031     0.10900
H442        H  0.93741028  0.17591495  0.91264505     0.11400
H443        H  0.06432689  0.36920432  0.83701869     0.11500
H444        H  0.06049453  0.43618836  0.80775908     0.11500
H445        H  0.94352319  0.39006316  0.76606563     0.11600
H446        H  0.94778724  0.32293988  0.79507927     0.10400
C447        C  0.98797007  0.83057912  0.59082484    -0.03400
C448        C  0.94915637  0.81369307  0.60234719    -0.09100
C449        C  0.94964187  0.77920959  0.62244207    -0.16800
C450        C  0.98886026  0.76126863  0.63136443     0.25300
C451        C  0.02766443  0.77840978  0.62043309    -0.18500
C452        C  0.02725035  0.81285188  0.60030958    -0.07400
C453        C  0.98927541  0.72441185  0.65092614    -0.13800
C454        C  0.99001306  0.69265047  0.66645784    -0.13600
C455        C  0.99154878  0.65381968  0.68406649     0.25200
C456        C  0.95896130  0.64458795  0.70475067    -0.19000
C457        C  0.96027751  0.60651086  0.72146229    -0.07400
C458        C  0.99431640  0.57736112  0.71770754    -0.03500
C459        C  0.02675374  0.58671195  0.69682029    -0.08800
C460        C  0.02542914  0.62478060  0.68016344    -0.16500
H461        H  0.91836724  0.82656981  0.59556200     0.11700
H462        H  0.91939629  0.76619178  0.63072372     0.11000
H463        H  0.05822224  0.76478629  0.62715685     0.10900
H464        H  0.05765205  0.82521881  0.59187036     0.11400
H465        H  0.93248126  0.66670847  0.70786739     0.11500
H466        H  0.93471542  0.59967117  0.73722745     0.11500
H467        H  0.05327585  0.56467158  0.69362409     0.11600
H468        H  0.05076975  0.63152179  0.66419488     0.10400
C469        C  0.99528668  0.57774015  0.78439533    -0.03400
C470        C  0.96304720  0.58361796  0.80594454    -0.09100
C471        C  0.96149398  0.62176871  0.82249290    -0.16800
C472        C  0.99224232  0.65442939  0.81779572     0.25300
C473        C  0.02467854  0.64865125  0.79652286    -0.18500
C474        C  0.02629907  0.61047186  0.77997633    -0.07400
C475        C  0.99079227  0.69353791  0.83510310    -0.13800
C476        C  0.98952987  0.72569355  0.85020532    -0.13600
C477        C  0.98812920  0.76308687  0.86922842     0.25200
C478        C  0.02567059  0.78728895  0.87463081    -0.19000
C479        C  0.02490873  0.82195596  0.89454272    -0.07400
C480        C  0.98649969  0.83298742  0.90916600    -0.03500
C481        C  0.94865294  0.80927978  0.90300226    -0.08800
C482        C  0.94955219  0.77441966  0.88326614    -0.16500
H483        H  0.93886756  0.55878824  0.80974366     0.11700
H484        H  0.93633504  0.62578408  0.83895156     0.11000
H485        H  0.04880065  0.67357086  0.79280931     0.10900
H486        H  0.05181593  0.60637126  0.76381254     0.11400
H487        H  0.05570483  0.77888727  0.86386792     0.11500
H488        H  0.05445885  0.83981211  0.89878690     0.11500
H489        H  0.91862720  0.81678062  0.91403071     0.11600
H490        H  0.92031628  0.75587728  0.87933145     0.10400
loop_ 
_geom_bond_atom_site_label_1 
_geom_bond_atom_site_label_2 
_geom_bond_distance 
_geom_bond_site_symmetry_2 
_ccdc_geom_bond_type 
C1           N19   1.352   1_655  A
C1           C38   1.461       .  S
C1          C235   1.479       .  S
N2           N19   1.325       .  A
N2           N24   1.320   1_455  A
N2          Co39   2.092       .  S
C3           N28   1.342       .  A
C3           C41   1.463       .  S
C3           H48   1.081       .  S
H4           C45   1.081       .  S
C5           N29   1.339       .  A
C5            C9   1.460       .  S
C5           H34   1.081       .  S
Co6          N24   2.082       .  S
Co6          N14   2.085       .  S
Co6         N291   2.082       .  S
Co6         N267   2.085       .  S
Co6        Cl295   2.449       .  S
N7           C45   1.343       .  A
N7           N14   1.319   1_545  A
N7         Co253   2.089       .  S
Co8          N28   2.087       .  S
Co8          N15   2.086       .  S
Co8         N252   2.089   1_554  S
Co8         N256   2.089   1_554  S
Co8         Cl50   2.454   1_545  S
C9           N47   1.352   1_455  A
C9          C180   1.478       .  S
N10          N17   1.319   1_545  A
N10          N40   1.324       .  A
N10        Co288   2.087       .  S
N11          N29   1.319   1_655  A
N11          N47   1.325       .  A
N11        Co253   2.089       .  S
N12          C41   1.351   1_565  A
N12          N22   1.324       .  A
H13          C38   1.081       .  S
N14          N35   1.324       .  A
N15          N33   1.320   1_655  A
N15          N20   1.324       .  A
C16          N20   1.351   1_455  A
C16          C44   1.464       .  S
C16         C158   1.482       .  S
N17          C32   1.342       .  A
N17         Co39   2.087       .  S
C18          N46   1.340       .  A
C18          C21   1.462       .  S
C18          H52   1.081       .  S
C21          N42   1.352   1_655  A
C21         C202   1.480       .  S
N22          N28   1.319   1_565  A
N22        Co251   2.086       .  S
N23          C49   1.343       .  A
N23          N25   1.320   1_565  A
N23        Co284   2.093       .  S
N24          C38   1.340       .  A
N25          N53   1.324       .  A
N25         Co43   2.083       .  S
H26          C49   1.081       .  S
H27          C44   1.081       .  S
N29        Co288   2.078       .  S
N30          N42   1.325       .  A
N30          N46   1.320   1_455  A
N30        Co284   2.088       .  S
C31          N35   1.350   1_545  A
C31          C45   1.465       .  S
C31         C147   1.482       .  S
C32          C51   1.464       .  S
C32          H36   1.081       .  S
N33          C44   1.342       .  A
N33         Co43   2.089       .  S
C37          N53   1.350   1_565  A
C37          C49   1.465       .  S
C37          C70   1.482       .  S
Co39        N268   2.093       .  S
Co39        N275   2.088       .  S
Co39       Cl295   2.453   1_455  S
N40          C51   1.351   1_545  A
C41         C114   1.480       .  S
Co43        N255   2.087   1_554  S
Co43        N274   2.078   1_554  S
Co43        Cl50   2.449   1_445  S
N46        Co251   2.082       .  S
Cl50       Co251   2.450       .  S
Cl50       Co284   2.453   1_655  S
C51          C92   1.482       .  S
C54         C213   1.483       .  S
C54          C55   1.416       .  A
C54          C59   1.405       .  A
C55         C224   1.486       .  S
C55          C56   1.404       .  A
C56          H61   1.084       .  S
C56          C57   1.404       .  A
C57         C191   1.482   1_655  S
C57          C58   1.415       .  A
C58         C169   1.486       .  S
C58          C59   1.404       .  A
C59          H60   1.084       .  S
C62         C136   1.484       .  S
C62          C63   1.415       .  A
C62          C67   1.403       .  A
C63         C125   1.486       .  S
C63          C64   1.406       .  A
C64          H69   1.084       .  S
C64          C65   1.407       .  A
C65          C81   1.489       .  S
C65          C66   1.418       .  A
C66         C103   1.486       .  S
C66          C67   1.405       .  A
C67          H68   1.084       .  S
C70          C71   1.407       .  A
C70          C75   1.407   1_565  A
C71          H84   1.082       .  S
C71          C72   1.402       .  A
C72          H85   1.084       .  S
C72          C73   1.402       .  A
C73          C74   1.399   1_565  A
C73          C76   1.444       .  S
C74          H86   1.083       .  S
C74          C75   1.399       .  A
C75          H87   1.083       .  S
C76          C77   1.209       .  T
C77          C78   1.444       .  S
C78          C79   1.402   1_565  A
C78          C83   1.400       .  A
C79          H88   1.083       .  S
C79          C80   1.402       .  A
C80          H89   1.083       .  S
C80          C81   1.407   1_545  A
C81          C82   1.405       .  A
C82          H90   1.083       .  S
C82          C83   1.399       .  A
C83          H91   1.083       .  S
C92          C93   1.407   1_565  A
C92          C97   1.407       .  A
C93         H106   1.083       .  S
C93          C94   1.399       .  A
C94         H107   1.083       .  S
C94          C95   1.400   1_545  A
C95          C96   1.400       .  A
C95          C98   1.443       .  S
C96         H108   1.084       .  S
C96          C97   1.400       .  A
C97         H109   1.082       .  S
C98          C99   1.208       .  T
C99         C100   1.442       .  S
C100        C101   1.401       .  A
C100        C105   1.401   1_565  A
C101        H110   1.083       .  S
C101        C102   1.399       .  A
C102        H111   1.083       .  S
C102        C103   1.406       .  A
C103        C104   1.406   1_565  A
C104        H112   1.083       .  S
C104        C105   1.399       .  A
C105        H113   1.083       .  S
C114        C115   1.406   1_545  A
C114        C119   1.407       .  A
C115        H128   1.083       .  S
C115        C116   1.398       .  A
C116        H129   1.083       .  S
C116        C117   1.399   1_565  A
C117        C118   1.401       .  A
C117        C120   1.442   1_545  S
C118        H130   1.084       .  S
C118        C119   1.400       .  A
C119        H131   1.082       .  S
C120        C121   1.207       .  T
C121        C122   1.442       .  S
C122        C123   1.401   1_565  A
C122        C127   1.400       .  A
C123        H132   1.083       .  S
C123        C124   1.399       .  A
C124        H133   1.083       .  S
C124        C125   1.404   1_545  A
C125        C126   1.407       .  A
C126        H134   1.083       .  S
C126        C127   1.399       .  A
C127        H135   1.083       .  S
C136        C137   1.405       .  A
C136        C141   1.405   1_565  A
C137        H150   1.083       .  S
C137        C138   1.399       .  A
C138        H151   1.083       .  S
C138        C139   1.401       .  A
C139        C140   1.401   1_565  A
C139        C142   1.443       .  S
C140        H152   1.083       .  S
C140        C141   1.399       .  A
C141        H153   1.083       .  S
C142        C143   1.208       .  T
C143        C144   1.443   1_565  S
C144        C145   1.401       .  A
C144        C149   1.400   1_545  A
C145        H154   1.084       .  S
C145        C146   1.401       .  A
C146        H155   1.082       .  S
C146        C147   1.406       .  A
C147        C148   1.407   1_545  A
C148        H156   1.083       .  S
C148        C149   1.399       .  A
C149        H157   1.083       .  S
C158        C159   1.407   1_455  A
C158        C163   1.406       .  A
C159        H172   1.083       .  S
C159        C160   1.400       .  A
C160        H173   1.083       .  S
C160        C161   1.400   1_655  A
C161        C162   1.400       .  A
C161        C164   1.444   1_455  S
C162        H174   1.084       .  S
C162        C163   1.400       .  A
C163        H175   1.082       .  S
C164        C165   1.208       .  T
C165        C166   1.444       .  S
C166        C167   1.401   1_655  A
C166        C171   1.401       .  A
C167        H176   1.083       .  S
C167        C168   1.400       .  A
C168        H177   1.083       .  S
C168        C169   1.406   1_455  A
C169        C170   1.405       .  A
C170        H178   1.083       .  S
C170        C171   1.399       .  A
C171        H179   1.083       .  S
C180        C181   1.407       .  A
C180        C185   1.405   1_455  A
C181        H194   1.082       .  S
C181        C182   1.398       .  A
C182        H195   1.084       .  S
C182        C183   1.399       .  A
C183        C184   1.399   1_455  A
C183        C186   1.438       .  S
C184        H196   1.083       .  S
C184        C185   1.398       .  A
C185        H197   1.083       .  S
C186        C187   1.205       .  T
C187        C188   1.438       .  S
C188        C189   1.400       .  A
C188        C193   1.400   1_455  A
C189        H198   1.083       .  S
C189        C190   1.398       .  A
C190        H199   1.083       .  S
C190        C191   1.405       .  A
C191        C192   1.405   1_455  A
C192        H200   1.083       .  S
C192        C193   1.398       .  A
C193        H201   1.083       .  S
C202        C203   1.407       .  A
C202        C207   1.406   1_655  A
C203        H216   1.082       .  S
C203        C204   1.399       .  A
C204        H217   1.084       .  S
C204        C205   1.400       .  A
C205        C206   1.400   1_655  A
C205        C208   1.441       .  S
C206        H218   1.083       .  S
C206        C207   1.399       .  A
C207        H219   1.083       .  S
C208        C209   1.207       .  T
C209        C210   1.441       .  S
C210        C211   1.401       .  A
C210        C215   1.400   1_655  A
C211        H220   1.083       .  S
C211        C212   1.400       .  A
C212        H221   1.083       .  S
C212        C213   1.405       .  A
C213        C214   1.405   1_655  A
C214        H222   1.083       .  S
C214        C215   1.398       .  A
C215        H223   1.083       .  S
C224        C225   1.405       .  A
C224        C229   1.406   1_655  A
C225        H238   1.083       .  S
C225        C226   1.399       .  A
C226        H239   1.083       .  S
C226        C227   1.400       .  A
C227        C228   1.401   1_655  A
C227        C230   1.442       .  S
C228        H240   1.083       .  S
C228        C229   1.400       .  A
C229        H241   1.083       .  S
C230        C231   1.207       .  T
C231        C232   1.442       .  S
C232        C233   1.400   1_655  A
C232        C237   1.400       .  A
C233        H242   1.083       .  S
C233        C234   1.400       .  A
C234        H243   1.083       .  S
C234        C235   1.405   1_455  A
C235        C236   1.407       .  A
C236        H244   1.082       .  S
C236        C237   1.399       .  A
C237        H245   1.084       .  S
C246        N264   1.352   1_655  A
C246        C283   1.461       .  S
C246        C480   1.479       .  S
N247        N264   1.325       .  A
N247        N269   1.320   1_455  A
N247       Co284   2.092   1_556  S
C248        N273   1.342       .  A
C248        C286   1.463       .  S
C248        H293   1.081       .  S
H249        C290   1.081       .  S
C250        N274   1.339       .  A
C250        C254   1.460       .  S
C250        H279   1.081       .  S
Co251       N269   2.082   1_554  S
Co251       N259   2.085   1_554  S
N252        C290   1.343       .  A
N252        N259   1.319   1_545  A
Co253       N273   2.087       .  S
Co253       N260   2.085       .  S
Co253      Cl295   2.454   1_545  S
C254        N292   1.352   1_455  A
C254        C425   1.478       .  S
N255        N262   1.319   1_545  A
N255        N285   1.324       .  A
N256        N274   1.319   1_655  A
N256        N292   1.325       .  A
N257        C286   1.351   1_565  A
N257        N267   1.324       .  A
H258        C283   1.081       .  S
N259        N280   1.324       .  A
N260        N278   1.320   1_655  A
N260        N265   1.324       .  A
C261        N265   1.351   1_455  A
C261        C289   1.464       .  S
C261        C403   1.482       .  S
N262        C277   1.342       .  A
N262       Co284   2.087   1_556  S
C263        N291   1.340       .  A
C263        C266   1.462       .  S
C263        H297   1.081       .  S
C266        N287   1.352   1_655  A
C266        C447   1.481       .  S
N267        N273   1.319   1_565  A
N268        C294   1.343       .  A
N268        N270   1.320   1_565  A
N269        C283   1.340       .  A
N270        N298   1.324       .  A
N270       Co288   2.083       .  S
H271        C294   1.081       .  S
H272        C289   1.081       .  S
N275        N287   1.325       .  A
N275        N291   1.320   1_455  A
C276        N280   1.350   1_545  A
C276        C290   1.465       .  S
C276        C392   1.482       .  S
C277        C296   1.464       .  S
C277        H281   1.081       .  S
N278        C289   1.342       .  A
N278       Co288   2.089       .  S
C282        N298   1.350   1_565  A
C282        C294   1.465       .  S
C282        C315   1.482       .  S
N285        C296   1.351   1_545  A
C286        C359   1.480       .  S
Co288      Cl295   2.449   1_445  S
C296        C337   1.482       .  S
C299        C458   1.483       .  S
C299        C300   1.416       .  A
C299        C304   1.405       .  A
C300        C469   1.486       .  S
C300        C301   1.404       .  A
C301        H306   1.084       .  S
C301        C302   1.404       .  A
C302        C436   1.482   1_655  S
C302        C303   1.415       .  A
C303        C414   1.486       .  S
C303        C304   1.404       .  A
C304        H305   1.084       .  S
C307        C381   1.484       .  S
C307        C308   1.415       .  A
C307        C312   1.403       .  A
C308        C370   1.486       .  S
C308        C309   1.406       .  A
C309        H314   1.084       .  S
C309        C310   1.407       .  A
C310        C326   1.489       .  S
C310        C311   1.418       .  A
C311        C348   1.486       .  S
C311        C312   1.405       .  A
C312        H313   1.084       .  S
C315        C316   1.407       .  A
C315        C320   1.407   1_565  A
C316        H329   1.082       .  S
C316        C317   1.402       .  A
C317        H330   1.084       .  S
C317        C318   1.402       .  A
C318        C319   1.399   1_565  A
C318        C321   1.444       .  S
C319        H331   1.083       .  S
C319        C320   1.399       .  A
C320        H332   1.083       .  S
C321        C322   1.209       .  T
C322        C323   1.444       .  S
C323        C324   1.402   1_565  A
C323        C328   1.400       .  A
C324        H333   1.083       .  S
C324        C325   1.401       .  A
C325        H334   1.083       .  S
C325        C326   1.407   1_545  A
C326        C327   1.405       .  A
C327        H335   1.083       .  S
C327        C328   1.399       .  A
C328        H336   1.083       .  S
C337        C338   1.407   1_565  A
C337        C342   1.407       .  A
C338        H351   1.083       .  S
C338        C339   1.399       .  A
C339        H352   1.083       .  S
C339        C340   1.400   1_545  A
C340        C341   1.400       .  A
C340        C343   1.442       .  S
C341        H353   1.084       .  S
C341        C342   1.400       .  A
C342        H354   1.082       .  S
C343        C344   1.208       .  T
C344        C345   1.442       .  S
C345        C346   1.401       .  A
C345        C350   1.401   1_565  A
C346        H355   1.083       .  S
C346        C347   1.399       .  A
C347        H356   1.083       .  S
C347        C348   1.406       .  A
C348        C349   1.406   1_565  A
C349        H357   1.083       .  S
C349        C350   1.399       .  A
C350        H358   1.083       .  S
C359        C360   1.406   1_545  A
C359        C364   1.407       .  A
C360        H373   1.083       .  S
C360        C361   1.398       .  A
C361        H374   1.083       .  S
C361        C362   1.399   1_565  A
C362        C363   1.401       .  A
C362        C365   1.441   1_545  S
C363        H375   1.084       .  S
C363        C364   1.400       .  A
C364        H376   1.082       .  S
C365        C366   1.207       .  T
C366        C367   1.442       .  S
C367        C368   1.401   1_565  A
C367        C372   1.400       .  A
C368        H377   1.083       .  S
C368        C369   1.399       .  A
C369        H378   1.083       .  S
C369        C370   1.404   1_545  A
C370        C371   1.407       .  A
C371        H379   1.083       .  S
C371        C372   1.399       .  A
C372        H380   1.083       .  S
C381        C382   1.404       .  A
C381        C386   1.405   1_565  A
C382        H395   1.083       .  S
C382        C383   1.399       .  A
C383        H396   1.083       .  S
C383        C384   1.401       .  A
C384        C385   1.401   1_565  A
C384        C387   1.443       .  S
C385        H397   1.083       .  S
C385        C386   1.399       .  A
C386        H398   1.083       .  S
C387        C388   1.208       .  T
C388        C389   1.443   1_565  S
C389        C390   1.401       .  A
C389        C394   1.400   1_545  A
C390        H399   1.084       .  S
C390        C391   1.401       .  A
C391        H400   1.082       .  S
C391        C392   1.406       .  A
C392        C393   1.407   1_545  A
C393        H401   1.083       .  S
C393        C394   1.399       .  A
C394        H402   1.083       .  S
C403        C404   1.407   1_455  A
C403        C408   1.406       .  A
C404        H417   1.083       .  S
C404        C405   1.400       .  A
C405        H418   1.083       .  S
C405        C406   1.400   1_655  A
C406        C407   1.400       .  A
C406        C409   1.444   1_455  S
C407        H419   1.084       .  S
C407        C408   1.400       .  A
C408        H420   1.082       .  S
C409        C410   1.208       .  T
C410        C411   1.444       .  S
C411        C412   1.401   1_655  A
C411        C416   1.401       .  A
C412        H421   1.083       .  S
C412        C413   1.400       .  A
C413        H422   1.083       .  S
C413        C414   1.406   1_455  A
C414        C415   1.405       .  A
C415        H423   1.083       .  S
C415        C416   1.399       .  A
C416        H424   1.083       .  S
C425        C426   1.407       .  A
C425        C430   1.405   1_455  A
C426        H439   1.082       .  S
C426        C427   1.398       .  A
C427        H440   1.084       .  S
C427        C428   1.399       .  A
C428        C429   1.399   1_455  A
C428        C431   1.438       .  S
C429        H441   1.083       .  S
C429        C430   1.398       .  A
C430        H442   1.083       .  S
C431        C432   1.205       .  T
C432        C433   1.438       .  S
C433        C434   1.400       .  A
C433        C438   1.400   1_455  A
C434        H443   1.083       .  S
C434        C435   1.398       .  A
C435        H444   1.083       .  S
C435        C436   1.405       .  A
C436        C437   1.405   1_455  A
C437        H445   1.083       .  S
C437        C438   1.398       .  A
C438        H446   1.083       .  S
C447        C448   1.407       .  A
C447        C452   1.406   1_655  A
C448        H461   1.081       .  S
C448        C449   1.399       .  A
C449        H462   1.084       .  S
C449        C450   1.400       .  A
C450        C451   1.400   1_655  A
C450        C453   1.441       .  S
C451        H463   1.083       .  S
C451        C452   1.399       .  A
C452        H464   1.083       .  S
C453        C454   1.207       .  T
C454        C455   1.441       .  S
C455        C456   1.401       .  A
C455        C460   1.400   1_655  A
C456        H465   1.083       .  S
C456        C457   1.400       .  A
C457        H466   1.083       .  S
C457        C458   1.405       .  A
C458        C459   1.405   1_655  A
C459        H467   1.083       .  S
C459        C460   1.398       .  A
C460        H468   1.083       .  S
C469        C470   1.405       .  A
C469        C474   1.406   1_655  A
C470        H483   1.083       .  S
C470        C471   1.399       .  A
C471        H484   1.083       .  S
C471        C472   1.400       .  A
C472        C473   1.401   1_655  A
C472        C475   1.442       .  S
C473        H485   1.083       .  S
C473        C474   1.400       .  A
C474        H486   1.083       .  S
C475        C476   1.207       .  T
C476        C477   1.442       .  S
C477        C478   1.400   1_655  A
C477        C482   1.400       .  A
C478        H487   1.083       .  S
C478        C479   1.400       .  A
C479        H488   1.083       .  S
C479        C480   1.405   1_455  A
C480        C481   1.407       .  A
C481        H489   1.082       .  S
C481        C482   1.399       .  A
C482        H490   1.084       .  S
