geometry optimzed in LAMMPS
_audit_creation_date              2020-12-01 
_audit_creation_method            'lammps2cif' 
_symmetry_space_group_name_H-M    'P1' 
_symmetry_Int_Tables_number       1 
_symmetry_cell_setting            triclinic 
loop_ 
_symmetry_equiv_pos_as_xyz 
  x,y,z 
_cell_length_a                    71.22056249 
_cell_length_b                    28.251228653386477 
_cell_length_c                    30.07278424628043 
_cell_angle_alpha                 89.99874043872009 
_cell_angle_beta                  90.00251710378754 
_cell_angle_gamma                 90.0127854485054 
loop_ 
_atom_site_label 
_atom_site_type_symbol 
_atom_site_fract_x 
_atom_site_fract_y 
_atom_site_fract_z 
_atom_site_charge 
C1          C  0.11764666  0.27385957  0.75306003     0.04800
C2          C  0.11724299  0.22404794  0.75479652     0.04700
C3          C  0.13042710  0.19976009  0.78078232    -0.15800
C4          C  0.14399929  0.22459476  0.80521336     0.04800
C5          C  0.14446364  0.27444379  0.80329994     0.04700
C6          C  0.13130073  0.29870494  0.77715939    -0.15800
H7          H  0.13156973  0.33709005  0.77590948     0.06800
H8          H  0.13004426  0.16139047  0.78222881     0.06800
O9          O  0.00395737  0.00255495  0.56666436    -0.72000
O10         O  0.96642389  0.94172441  0.49543961    -0.72000
O11         O  0.00442139  0.94074665  0.49785063    -0.72000
O12         O  0.96593280  0.00348058  0.56426182    -0.72100
O13         O  0.96666833  0.06396684  0.51644873    -0.72000
O14         O  0.00519936  0.00116858  0.44996347    -0.72000
O15         O  0.96716862  0.00213299  0.44755213    -0.72000
O16         O  0.00472619  0.06300259  0.51882538    -0.72000
Ni17       Ni  0.98515614  0.96997029  0.53277075     1.25400
Ni18       Ni  0.98597040  0.03475712  0.48147326     1.25400
C19         C  0.01047307  0.04268670  0.55435135     0.90200
C20         C  0.96067988  0.96197269  0.45989063     0.90200
C21         C  0.01107458  0.96070860  0.46307736     0.90200
C22         C  0.96000685  0.04388960  0.55118145     0.90400
O23         O  0.00414917  0.43750973  0.51990058    -0.72000
O24         O  0.96612564  0.50044319  0.45175510    -0.72000
O25         O  0.00417485  0.50062824  0.45195076    -0.72000
O26         O  0.96610619  0.43738056  0.51971319    -0.72100
O27         O  0.96603203  0.49698566  0.56850549    -0.72000
O28         O  0.00409323  0.56021911  0.50075750    -0.72000
O29         O  0.96604251  0.56005068  0.50054246    -0.72000
O30         O  0.00407071  0.49710702  0.56869608    -0.72000
Ni31       Ni  0.98514216  0.46685429  0.48407123     1.25400
Ni32       Ni  0.98505746  0.53073166  0.53637331     1.25400
C33         C  0.01028077  0.45699423  0.55547386     0.90200
C34         C  0.95989613  0.54051982  0.46500581     0.90200
C35         C  0.01033228  0.54075355  0.46529286     0.90200
C36         C  0.95988273  0.45684628  0.55519999     0.90400
C37         C  0.11665101  0.77421576  0.26473660     0.04800
C38         C  0.11605852  0.72442190  0.26363181     0.04700
C39         C  0.12868789  0.69958207  0.23662060    -0.15800
C40         C  0.14191652  0.72392711  0.21075672     0.04800
C41         C  0.14255686  0.77376088  0.21211331     0.04700
C42         C  0.12989790  0.79854855  0.23907032    -0.15800
H43         H  0.13031895  0.83694053  0.23997740     0.06800
H44         H  0.12819272  0.66120356  0.23564821     0.06800
C45         C  0.73567905  0.49993686  0.00807069     0.00000
C46         C  0.73490103  0.99855458  0.01038796     0.00000
C47         C  0.64179502  0.27564993  0.20776038     0.04800
C48         C  0.64127255  0.22579534  0.20740492     0.04700
C49         C  0.62809122  0.20183845  0.23367143    -0.15800
C50         C  0.61537933  0.22706088  0.26011666     0.04800
C51         C  0.61583933  0.27689273  0.26034121     0.04700
C52         C  0.62905584  0.30086849  0.23422566    -0.15800
H53         H  0.62940881  0.33927084  0.23444384     0.06800
H54         H  0.62769236  0.16343591  0.23344566     0.06800
C55         C  0.64283144  0.77461919  0.80632012     0.04800
C56         C  0.64317768  0.72478554  0.80467703     0.04700
C57         C  0.63035367  0.70072951  0.77750711    -0.15800
C58         C  0.61716856  0.72581258  0.75219797     0.04800
C59         C  0.61682237  0.77562042  0.75386037     0.04700
C60         C  0.62968403  0.79969066  0.78085804    -0.15800
H61         H  0.62940178  0.83807164  0.78223377     0.06800
H62         H  0.63053426  0.66233874  0.77632214     0.06800
C63         C  0.35444597  0.72591706  0.75546137     0.04800
C64         C  0.35422688  0.77576441  0.75502673     0.04700
C65         C  0.34101759  0.80023237  0.78077917    -0.15800
C66         C  0.32806983  0.77551464  0.80712074     0.04800
C67         C  0.32827724  0.72564370  0.80747682     0.04700
C68         C  0.34144113  0.70119678  0.78156182    -0.15800
H69         H  0.34164863  0.66278626  0.78194249     0.06800
H70         H  0.34090655  0.83864292  0.78058106     0.06800
C71         C  0.23536714  0.99895706  0.01076770     0.00000
C72         C  0.32617122  0.22620289  0.21587039     0.04800
C73         C  0.32571470  0.27608011  0.21710548     0.04700
C74         C  0.33875161  0.30069907  0.24328131    -0.15800
C75         C  0.35221566  0.27618033  0.26819302     0.04800
C76         C  0.35259725  0.22636560  0.26717966     0.04700
C77         C  0.33957692  0.20171455  0.24107327    -0.15800
H78         H  0.33995217  0.16332428  0.24015795     0.06800
H79         H  0.33850090  0.33910174  0.24402914     0.06800
C80         C  0.23530351  0.50050141  0.00902251     0.00000
O81         O  0.50397669  0.06706419  0.50108563    -0.72000
O82         O  0.46648070  0.00410333  0.57079225    -0.72000
O83         O  0.50451552  0.00516517  0.57009450    -0.72000
O84         O  0.46595120  0.06590018  0.50180845    -0.72100
O85         O  0.46606454  0.00541062  0.45398578    -0.72000
O86         O  0.50461053  0.94472625  0.52222192    -0.72000
O87         O  0.46659261  0.94363049  0.52294854    -0.72000
O88         O  0.50407518  0.00658552  0.45324738    -0.72000
Ni89       Ni  0.48523165  0.03773591  0.53766579     1.25400
Ni90       Ni  0.48534481  0.97292226  0.48638514     1.25400
C91         C  0.51009191  0.04715168  0.46571819     0.90200
C92         C  0.46044173  0.96357519  0.55826621     0.90200
C93         C  0.51079900  0.96493390  0.55737711     0.90200
C94         C  0.45974085  0.04557523  0.46672732     0.90400
O95         O  0.50447925  0.49504796  0.45417678    -0.72000
O96         O  0.46628845  0.55763012  0.52187881    -0.72000
O97         O  0.50428178  0.55770973  0.52230278    -0.72000
O98         O  0.46643713  0.49492864  0.45369309    -0.72100
O99         O  0.46635549  0.43506150  0.50221027    -0.72000
O100        O  0.50422688  0.49789548  0.57088672    -0.72000
O101        O  0.46620657  0.49779611  0.57043490    -0.72000
O102        O  0.50443057  0.43517335  0.50268593    -0.72000
Ni103      Ni  0.48537247  0.52845634  0.48626082     1.25400
Ni104      Ni  0.48529890  0.46430830  0.53829413     1.25400
C105        C  0.51070021  0.45495971  0.46739521     0.90200
C106        C  0.46007213  0.53800705  0.55728754     0.90200
C107        C  0.51040275  0.53809008  0.55779559     0.90200
C108        C  0.46020864  0.45479090  0.46677464     0.90400
C109        C  0.85419914  0.22114234  0.75646278     0.04800
C110        C  0.85443080  0.27099191  0.75596663     0.04700
C111        C  0.84176690  0.29623461  0.78254088    -0.15800
C112        C  0.82887525  0.27232530  0.80965227     0.04800
C113        C  0.82866877  0.22245530  0.81021592     0.04700
C114        C  0.84133794  0.19719900  0.78359007    -0.15800
H115        H  0.84118749  0.15878710  0.78397978     0.06800
H116        H  0.84195660  0.33464297  0.78215247     0.06800
C117        C  0.85438274  0.72451368  0.26310157     0.04800
C118        C  0.85418427  0.77435473  0.26375816     0.04700
C119        C  0.84075764  0.79896420  0.23880773    -0.15800
C120        C  0.82755625  0.77442476  0.21305534     0.04800
C121        C  0.82778219  0.72454912  0.21227783     0.04700
C122        C  0.84119249  0.69994319  0.23737065    -0.15800
H123        H  0.84138438  0.66153760  0.23681755     0.06800
H124        H  0.84063288  0.83737601  0.23928297     0.06800
C125        C  0.26746786  0.41724300  0.09135120     0.19500
C126        C  0.28601337  0.43015251  0.10104078    -0.09600
C127        C  0.29724647  0.40062176  0.12721185    -0.10500
C128        C  0.29000149  0.35801264  0.14380190     0.21100
C129        C  0.27139645  0.34528629  0.13447784    -0.12500
C130        C  0.26015097  0.37485316  0.10829734    -0.10800
C131        C  0.30179451  0.32729943  0.16986093     0.02000
C132        C  0.31232888  0.30293081  0.19134367    -0.30800
C133        C  0.25611107  0.44697548  0.06327827     0.03400
C134        C  0.24672353  0.47143940  0.03903545    -0.32500
H135        H  0.29182139  0.46281572  0.08809800     0.14500
H136        H  0.31160883  0.41082919  0.13424423     0.14300
H137        H  0.26564679  0.31243993  0.14714944     0.14100
H138        H  0.24583005  0.36451332  0.10098543     0.13200
C139        C  0.41957542  0.38954015  0.39336205     0.19500
C140        C  0.42180893  0.34246559  0.37967369    -0.09600
C141        C  0.40786799  0.32049938  0.35422590    -0.10500
C142        C  0.39164315  0.34552944  0.34232306     0.21100
C143        C  0.38939338  0.39257809  0.35604402    -0.12500
C144        C  0.40333217  0.41453731  0.38152068    -0.10800
C145        C  0.37734953  0.32283002  0.31608854     0.02000
C146        C  0.36567869  0.30252939  0.29419584    -0.30800
C147        C  0.43394824  0.41221534  0.41942408     0.03400
C148        C  0.44596673  0.43145461  0.44112520    -0.32500
H149        H  0.43430596  0.32280030  0.38864294     0.14500
H150        H  0.40973389  0.28407409  0.34382844     0.14300
H151        H  0.37689660  0.41223250  0.34704964     0.14100
H152        H  0.40145941  0.45094530  0.39193650     0.13200
C153        C  0.41932277  0.11083326  0.39260544     0.19500
C154        C  0.41348766  0.09079449  0.35227410    -0.09600
C155        C  0.39982436  0.11341518  0.32648064    -0.10500
C156        C  0.39194261  0.15617336  0.34090923     0.21100
C157        C  0.39778513  0.17624238  0.38121208    -0.12500
C158        C  0.41143621  0.15360620  0.40701904    -0.10800
C159        C  0.37793599  0.17958914  0.31436430     0.02000
C160        C  0.36630004  0.20012793  0.29256835    -0.30800
C161        C  0.43346355  0.08768621  0.41902814     0.03400
C162        C  0.44540263  0.06841881  0.44096185    -0.32500
H163        H  0.41950920  0.05777448  0.34077322     0.14500
H164        H  0.39542909  0.09763615  0.29533678     0.14300
H165        H  0.39181186  0.20936298  0.39262244     0.14100
H166        H  0.41585864  0.16945796  0.43810603     0.13200
C167        C  0.29151333  0.14445021  0.13943715     0.19500
C168        C  0.28807969  0.15539128  0.09472483    -0.09600
C169        C  0.27694695  0.12538104  0.06873288    -0.10500
C170        C  0.26920331  0.08428832  0.08732692     0.21100
C171        C  0.27267414  0.07328918  0.13200920    -0.12500
C172        C  0.28381059  0.10328687  0.15799463    -0.10800
C173        C  0.25755885  0.05373434  0.06070665     0.02000
C174        C  0.24762081  0.02866322  0.03829633    -0.30800
C175        C  0.30316311  0.17496730  0.16609297     0.03400
C176        C  0.31332933  0.19928179  0.18862535    -0.32500
H177        H  0.29401034  0.18703466  0.07998979     0.14500
H178        H  0.27435437  0.13423549  0.03421928     0.14300
H179        H  0.26675941  0.04162045  0.14673693     0.14100
H180        H  0.28642568  0.09438661  0.19248836     0.13200
C181        C  0.29264726  0.64519226  0.88257696     0.19500
C182        C  0.28306153  0.66357324  0.91942358    -0.13200
C183        C  0.27145733  0.63417571  0.94489504    -0.10500
C184        C  0.26940078  0.58630486  0.93361113     0.21100
C185        C  0.27895109  0.56800517  0.89670425    -0.12500
C186        C  0.29054700  0.59737061  0.87126076    -0.10800
C187        C  0.25754111  0.55593956  0.95986932     0.02000
C188        C  0.24757304  0.53057413  0.98190062    -0.30800
C189        C  0.30480147  0.67505821  0.85658887     0.03400
C190        C  0.31530726  0.69878323  0.83440630    -0.32500
H191        H  0.28459718  0.70049588  0.92849261     0.14500
H192        H  0.26413196  0.64870137  0.97336513     0.14300
H193        H  0.27746200  0.53106783  0.88767015     0.14100
H194        H  0.29790859  0.58278381  0.84286942     0.13200
C195        C  0.26814680  0.91158573  0.93367627     0.19500
C196        C  0.27821175  0.87469810  0.95376658    -0.09600
C197        C  0.28994624  0.84581649  0.92813218    -0.10500
C198        C  0.29166402  0.85371451  0.88230534     0.21100
C199        C  0.28147194  0.89032635  0.86217847    -0.12500
C200        C  0.26973651  0.91917488  0.88779411    -0.10800
C201        C  0.30416776  0.82503106  0.85606353     0.02000
C202        C  0.31490599  0.80202707  0.83383271    -0.30800
C203        C  0.25646259  0.94214033  0.96018877     0.03400
C204        C  0.24687795  0.96799865  0.98266609    -0.32500
H205        H  0.27709361  0.86851097  0.98922401     0.14500
H206        H  0.29777127  0.81762821  0.94405038     0.14300
H207        H  0.28271033  0.89678679  0.82678759     0.14100
H208        H  0.26202744  0.94758374  0.87191368     0.13200
C209        C  0.39325331  0.84792796  0.68190913     0.19500
C210        C  0.41098261  0.82745768  0.67571974    -0.09600
C211        C  0.42468406  0.85121732  0.65095928    -0.10500
C212        C  0.42070878  0.89552042  0.63223224     0.21100
C213        C  0.40298526  0.91600508  0.63846802    -0.12500
C214        C  0.38928751  0.89226230  0.66325956    -0.10800
C215        C  0.43474435  0.91976353  0.60636969     0.02000
C216        C  0.44646995  0.93988372  0.58446788    -0.30800
C217        C  0.37917945  0.82343429  0.70741057     0.03400
C218        C  0.36763569  0.80227203  0.72897986    -0.32500
H219        H  0.41419309  0.79317400  0.68997161     0.14500
H220        H  0.43833596  0.83503020  0.64633314     0.14300
H221        H  0.39975533  0.95022455  0.62411923     0.14100
H222        H  0.37562647  0.90841094  0.66784177     0.13200
C223        C  0.42051928  0.60668002  0.63117451     0.19500
C224        C  0.41625962  0.65414616  0.62215541    -0.09600
C225        C  0.40279964  0.67788515  0.64764249    -0.10500
C226        C  0.39353302  0.65423286  0.68222421     0.21100
C227        C  0.39784111  0.60683111  0.69135729    -0.12500
C228        C  0.41130995  0.58310290  0.66588800    -0.10800
C229        C  0.37961011  0.67860887  0.70823205     0.02000
C230        C  0.36804067  0.69964627  0.72979691    -0.30800
C231        C  0.43433684  0.58220875  0.60488894     0.03400
C232        C  0.44599480  0.56183578  0.58301862    -0.32500
H233        H  0.42332039  0.67274502  0.59544708     0.14500
H234        H  0.39960215  0.71457515  0.64037402     0.14300
H235        H  0.39078041  0.58824338  0.71807558     0.14100
H236        H  0.41452090  0.54643968  0.67320018     0.13200
C237        C  0.55069155  0.89686795  0.63101628     0.19500
C238        C  0.54734696  0.85037832  0.64525716    -0.09600
C239        C  0.56088102  0.82636471  0.67033194    -0.10500
C240        C  0.57782336  0.84872908  0.68132341     0.21100
C241        C  0.58116820  0.89521467  0.66710767    -0.12500
C242        C  0.56763576  0.91922329  0.64201205    -0.10800
C243        C  0.59175636  0.82392006  0.70704893     0.02000
C244        C  0.60327921  0.80246660  0.72845869    -0.30800
C245        C  0.53677095  0.92151293  0.60507052     0.03400
C246        C  0.52501122  0.94170521  0.58329023    -0.32500
H247        H  0.53430679  0.83271717  0.63694861     0.14500
H248        H  0.55814867  0.79041326  0.68110889     0.14300
H249        H  0.59421925  0.91284330  0.67538231     0.14100
H250        H  0.57038325  0.95513699  0.63117340     0.13200
C251        C  0.55058396  0.60671257  0.62968163     0.19500
C252        C  0.55978424  0.58381805  0.66478619    -0.09600
C253        C  0.57361486  0.60761952  0.68905157    -0.10500
C254        C  0.57829640  0.65440051  0.67829739     0.21100
C255        C  0.56909316  0.67733754  0.64321346    -0.12500
C256        C  0.55526374  0.65352084  0.61892726    -0.10800
C257        C  0.59235779  0.67899217  0.70363315     0.02000
C258        C  0.60386299  0.69990082  0.72546099    -0.30800
C259        C  0.53638203  0.58217861  0.60467426     0.03400
C260        C  0.52451390  0.56180447  0.58347201    -0.32500
H261        H  0.55626244  0.54764177  0.67338691     0.14500
H262        H  0.58061949  0.58962990  0.71619620     0.14300
H263        H  0.57258086  0.71357364  0.63471931     0.14100
H264        H  0.54822604  0.67155226  0.59185849     0.13200
C265        C  0.57794695  0.34698216  0.33816573     0.19500
C266        C  0.56966495  0.32173540  0.37315369    -0.09600
C267        C  0.55620003  0.34344152  0.40016909    -0.10500
C268        C  0.55097996  0.39052731  0.39234459     0.21100
C269        C  0.55931862  0.41583257  0.35745681    -0.12500
C270        C  0.57276917  0.39409973  0.33040081    -0.10800
C271        C  0.53692976  0.41272746  0.41970899     0.02000
C272        C  0.52501114  0.43169976  0.44191025    -0.30800
C273        C  0.59161398  0.32430007  0.31012325     0.03400
C274        C  0.60282402  0.30376560  0.28711553    -0.32500
H275        H  0.57358972  0.28529678  0.37947583     0.14500
H276        H  0.54983486  0.32352251  0.42700700     0.14300
H277        H  0.55537056  0.45224488  0.35108362     0.14100
H278        H  0.57907475  0.41392864  0.30342228     0.13200
C279        C  0.57651664  0.15822137  0.33633117     0.19500
C280        C  0.55984521  0.18187762  0.34719329    -0.09600
C281        C  0.54635210  0.15963983  0.37376408    -0.10500
C282        C  0.54947127  0.11362630  0.38952717     0.21100
C283        C  0.56613269  0.08996291  0.37859974    -0.12500
C284        C  0.57963314  0.11222132  0.35207418    -0.10800
C285        C  0.53557991  0.09059590  0.41673912     0.02000
C286        C  0.52396916  0.07090638  0.43930489    -0.30800
C287        C  0.59041739  0.18122843  0.30918531     0.03400
C288        C  0.60191082  0.20137259  0.28666132    -0.32500
H289        H  0.55728215  0.21742972  0.33511349     0.14500
H290        H  0.53351407  0.17825292  0.38196899     0.14300
H291        H  0.56867803  0.05436687  0.39057557     0.14100
H292        H  0.59247390  0.09361818  0.34386486     0.13200
C293        C  0.67827216  0.85389221  0.88269787     0.19500
C294        C  0.67371447  0.90166431  0.88893369    -0.09600
C295        C  0.68547804  0.93081665  0.91410498    -0.10500
C296        C  0.70185928  0.91233286  0.93312481     0.21100
C297        C  0.70642730  0.86452912  0.92693675    -0.12500
C298        C  0.69464582  0.83533455  0.90174733    -0.10800
C299        C  0.71381673  0.94237720  0.95934734     0.02000
C300        C  0.72349672  0.96785637  0.98191162    -0.30800
C301        C  0.66616476  0.82422708  0.85649814     0.03400
C302        C  0.65570420  0.80084056  0.83394744    -0.32500
H303        H  0.66108562  0.91634723  0.87433001     0.14500
H304        H  0.68180049  0.96769593  0.91877474     0.14300
H305        H  0.71904802  0.84987442  0.94159792     0.14100
H306        H  0.69828760  0.79842422  0.89711883     0.13200
C307        C  0.67664123  0.14477497  0.13232006     0.19500
C308        C  0.66980358  0.12155572  0.09446100    -0.09600
C309        C  0.68157982  0.09165173  0.07005352    -0.10500
C310        C  0.70022698  0.08483442  0.08345399     0.21100
C311        C  0.70708828  0.10825942  0.12115676    -0.12500
C312        C  0.69531633  0.13816042  0.14555299    -0.10800
C313        C  0.71232470  0.05391091  0.05853345     0.02000
C314        C  0.72252336  0.02844791  0.03728267    -0.30800
C315        C  0.66440791  0.17454323  0.15811465     0.03400
C316        C  0.65400461  0.19847316  0.18032400    -0.32500
H317        H  0.65537368  0.12637257  0.08398381     0.14500
H318        H  0.67614648  0.07376036  0.04089445     0.14300
H319        H  0.72149433  0.10328575  0.13174681     0.14100
H320        H  0.70073222  0.15589182  0.17481007     0.13200
C321        C  0.79107759  0.85495172  0.14047630     0.19500
C322        C  0.78972826  0.90329638  0.15041502    -0.09600
C323        C  0.77815844  0.93266458  0.12490649    -0.10500
C324        C  0.76789075  0.91381067  0.08934031     0.21100
C325        C  0.76915553  0.86541064  0.07954801    -0.12500
C326        C  0.78072774  0.83602831  0.10506647    -0.10800
C327        C  0.75625672  0.94416108  0.06256133     0.02000
C328        C  0.74660382  0.96917473  0.03945146    -0.30800
C329        C  0.80337818  0.82510494  0.16605674     0.03400
C330        C  0.81413521  0.80125818  0.18741020    -0.32500
H331        H  0.79770248  0.91830635  0.17767108     0.14500
H332        H  0.77729882  0.97003454  0.13273736     0.14300
H333        H  0.76128649  0.85048023  0.05208298     0.14100
H334        H  0.78169596  0.79871591  0.09704715     0.13200
C335        C  0.76858485  0.08528081  0.93504456     0.19500
C336        C  0.77644623  0.12580483  0.95445986    -0.09600
C337        C  0.78827887  0.15514788  0.92955055    -0.10500
C338        C  0.79228593  0.14404911  0.88513947     0.21100
C339        C  0.78429825  0.10374211  0.86565854    -0.12500
C340        C  0.77246894  0.07443615  0.89054265    -0.10800
C341        C  0.80485316  0.17333084  0.85969220     0.02000
C342        C  0.81559776  0.19642774  0.83757500    -0.30800
C343        C  0.75673446  0.05454071  0.96087939     0.03400
C344        C  0.74689715  0.02884767  0.98286846    -0.32500
H345        H  0.77352260  0.13452433  0.98885724     0.14500
H346        H  0.79438468  0.18621884  0.94494542     0.14300
H347        H  0.78731635  0.09481719  0.83135655     0.14100
H348        H  0.76645890  0.04321544  0.87520347     0.13200
C349        C  0.70202509  0.41334480  0.08377907     0.19500
C350        C  0.70135806  0.36459777  0.07517737    -0.09600
C351        C  0.68958765  0.33529956  0.10032973    -0.10500
C352        C  0.67844771  0.35466867  0.13415665     0.21100
C353        C  0.67920768  0.40334648  0.14288424    -0.12500
C354        C  0.69096447  0.43260544  0.11776636    -0.10800
C355        C  0.66600613  0.32498655  0.15955497     0.02000
C356        C  0.65516699  0.30171741  0.18125573    -0.30800
C357        C  0.71388856  0.44371443  0.05754662     0.03400
C358        C  0.72371128  0.46934373  0.03542500    -0.32500
H359        H  0.70985307  0.34933198  0.04896119     0.14500
H360        H  0.68909918  0.29770357  0.09328255     0.14300
H361        H  0.67064306  0.41869341  0.16893215     0.14100
H362        H  0.69136585  0.47022831  0.12469645     0.13200
C363        C  0.70246958  0.58591655  0.93051931     0.19500
C364        C  0.69871315  0.57444248  0.88607245    -0.09600
C365        C  0.68713442  0.60369133  0.86042266    -0.10500
C366        C  0.67925972  0.64459037  0.87906602     0.21100
C367        C  0.68310485  0.65623411  0.92344557    -0.12500
C368        C  0.69468001  0.62696004  0.94911079    -0.10800
C369        C  0.66695321  0.67397710  0.85291408     0.02000
C370        C  0.65631657  0.69761673  0.83095277    -0.30800
C371        C  0.71417426  0.55543414  0.95710336     0.03400
C372        C  0.72389849  0.53004895  0.97974640    -0.32500
H373        H  0.70465403  0.54281760  0.87134056     0.14500
H374        H  0.68423768  0.59428819  0.82617434     0.14300
H375        H  0.67708073  0.68773052  0.93823541     0.14100
H376        H  0.69748590  0.63619366  0.98344483     0.13200
C377        C  0.76838614  0.58592525  0.08671059     0.19500
C378        C  0.77330245  0.57268202  0.13007513    -0.09600
C379        C  0.78484322  0.60205039  0.15570750    -0.10500
C380        C  0.79150914  0.64481280  0.13811187     0.21100
C381        C  0.78647576  0.65823009  0.09486917    -0.12500
C382        C  0.77494291  0.62884594  0.06922782    -0.10800
C383        C  0.80384095  0.67429056  0.16406724     0.02000
C384        C  0.81454410  0.69785464  0.18589806    -0.30800
C385        C  0.75681712  0.55531808  0.05995480     0.03400
C386        C  0.74725368  0.52998546  0.03689592    -0.32500
H387        H  0.76831777  0.53958385  0.14393517     0.14500
H388        H  0.78867087  0.59128555  0.18907588     0.14300
H389        H  0.79156208  0.69118301  0.08090739     0.14100
H390        H  0.77123125  0.63943563  0.03573720     0.13200
C391        C  0.79349860  0.35454403  0.88368004     0.19500
C392        C  0.79792061  0.40262839  0.88831117    -0.09600
C393        C  0.78616472  0.43245271  0.91285517    -0.10500
C394        C  0.76991785  0.41434477  0.93286326     0.21100
C395        C  0.76548859  0.36624292  0.92824647    -0.12500
C396        C  0.77725564  0.33639326  0.90369843    -0.10800
C397        C  0.75789294  0.44500354  0.95838255     0.02000
C398        C  0.74786569  0.47028766  0.98033887    -0.30800
C399        C  0.80562201  0.32406649  0.85825684     0.03400
C400        C  0.81605587  0.29976246  0.83645258    -0.32500
H401        H  0.81044362  0.41703256  0.87296347     0.14500
H402        H  0.78974284  0.46955199  0.91625996     0.14300
H403        H  0.75297445  0.35184949  0.94363966     0.14100
H404        H  0.77370510  0.29926815  0.90033820     0.13200
C405        C  0.17885863  0.85471730  0.13951597     0.19500
C406        C  0.17862937  0.90372769  0.14672103    -0.09600
C407        C  0.19020008  0.93341756  0.12152686    -0.10500
C408        C  0.20204626  0.91421058  0.08901262     0.21100
C409        C  0.20236324  0.86516808  0.08200949    -0.12500
C410        C  0.19079290  0.83547080  0.10721215    -0.10800
C411        C  0.21369381  0.94475995  0.06244198     0.02000
C412        C  0.22343457  0.96971800  0.03946632    -0.30800
C413        C  0.16660843  0.82442552  0.16476538     0.03400
C414        C  0.15590367  0.80037682  0.18606421    -0.32500
H415        H  0.16943493  0.91897611  0.17159705     0.14500
H416        H  0.18983561  0.97127666  0.12720621     0.14300
H417        H  0.21146694  0.84995468  0.05693599     0.14100
H418        H  0.19106799  0.79763326  0.10135494     0.13200
C419        C  0.20033643  0.58610187  0.08218432     0.19500
C420        C  0.18120888  0.57535270  0.08621643    -0.09600
C421        C  0.16948664  0.60439324  0.11165852    -0.10500
C422        C  0.17683745  0.64432033  0.13314172     0.21100
C423        C  0.19594085  0.65525677  0.12887399    -0.12500
C424        C  0.20766836  0.62619217  0.10344413    -0.10800
C425        C  0.16482318  0.67355046  0.16006130     0.02000
C426        C  0.15454634  0.69705785  0.18300210    -0.30800
C427        C  0.21245205  0.55584621  0.05654707     0.03400
C428        C  0.22269885  0.53059411  0.03517326    -0.32500
H429        H  0.17539338  0.54446610  0.06989357     0.14500
H430        H  0.15473401  0.59560449  0.11476366     0.14300
H431        H  0.20176596  0.68604230  0.14534572     0.14100
H432        H  0.22243991  0.63483968  0.10051253     0.13200
C433        C  0.07737767  0.65415422  0.33936042     0.19500
C434        C  0.06939376  0.61159253  0.32473296    -0.09600
C435        C  0.05592418  0.58858285  0.35077885    -0.10500
C436        C  0.05036669  0.60802982  0.39156808     0.21100
C437        C  0.05836958  0.65058551  0.40624183    -0.12500
C438        C  0.07184809  0.67360274  0.38018444    -0.10800
C439        C  0.03636987  0.58445583  0.41810068     0.02000
C440        C  0.02453194  0.56452497  0.43982748    -0.30800
C441        C  0.09115294  0.67794194  0.31240180     0.03400
C442        C  0.10258272  0.69843262  0.28994246    -0.32500
H443        H  0.07355326  0.59627266  0.29321443     0.14500
H444        H  0.04981936  0.55572897  0.33908788     0.14300
H445        H  0.05416895  0.66597223  0.43770053     0.14100
H446        H  0.07792688  0.70652373  0.39180332     0.13200
C447        C  0.89263210  0.34193471  0.67935142     0.19500
C448        C  0.89617212  0.39014097  0.68642551    -0.09600
C449        C  0.90972765  0.41360129  0.66096059    -0.10500
C450        C  0.91982833  0.38894146  0.62836629     0.21100
C451        C  0.91624355  0.34076540  0.62120062    -0.12500
C452        C  0.90264483  0.31735545  0.64656156    -0.10800
C453        C  0.93388511  0.41299328  0.60239250     0.02000
C454        C  0.94571681  0.43305416  0.58075175    -0.30800
C455        C  0.87890440  0.31759444  0.70603616     0.03400
C456        C  0.86763355  0.29676984  0.72868933    -0.32500
H457        H  0.88850602  0.40950495  0.71166329     0.14500
H458        H  0.91237024  0.45086679  0.66676437     0.14300
H459        H  0.92394966  0.32134805  0.59607011     0.14100
H460        H  0.89994435  0.28016208  0.64061296     0.13200
C461        C  0.89326544  0.65369766  0.33768956     0.19500
C462        C  0.90957428  0.67766983  0.35082344    -0.09600
C463        C  0.92297095  0.65475283  0.37715694    -0.10500
C464        C  0.92011498  0.60776281  0.39048835     0.21100
C465        C  0.90378713  0.58382410  0.37740393    -0.12500
C466        C  0.89038896  0.60674494  0.35106528    -0.10800
C467        C  0.93399224  0.58404739  0.41726069     0.02000
C468        C  0.94574605  0.56417768  0.43928969    -0.30800
C469        C  0.87946226  0.67740378  0.31076896     0.03400
C470        C  0.86797617  0.69815369  0.28870164    -0.32500
H471        H  0.91192815  0.71400796  0.34070149     0.14500
H472        H  0.93554172  0.67360342  0.38705366     0.14300
H473        H  0.90143456  0.54748656  0.38750058     0.14100
H474        H  0.87781562  0.58790851  0.34114885     0.13200
C475        C  0.07869781  0.84593039  0.34081884     0.19500
C476        C  0.08022261  0.89470461  0.34836863    -0.09600
C477        C  0.06664733  0.91809137  0.37375765    -0.10500
C478        C  0.05151530  0.89276721  0.39165493     0.21100
C479        C  0.05004946  0.84393970  0.38428542    -0.12500
C480        C  0.06361843  0.82056216  0.35889290    -0.10800
C481        C  0.03738894  0.91693595  0.41712802     0.02000
C482        C  0.02542449  0.93707674  0.43816931    -0.30800
C483        C  0.09245993  0.82191688  0.31418126     0.03400
C484        C  0.10367053  0.80084627  0.29168780    -0.32500
H485        H  0.09183159  0.91461777  0.33450051     0.14500
H486        H  0.06789676  0.95586471  0.37926261     0.14300
H487        H  0.03839648  0.82404636  0.39796486     0.14100
H488        H  0.06231080  0.78283136  0.35317118     0.13200
C489        C  0.89332628  0.84662717  0.33645757     0.19500
C490        C  0.90142143  0.82497648  0.37373341    -0.09600
C491        C  0.91510904  0.84885093  0.39843806    -0.10500
C492        C  0.92076949  0.89447893  0.38597120     0.21100
C493        C  0.91268241  0.91610966  0.34866823    -0.12500
C494        C  0.89899103  0.89223164  0.32396085    -0.10800
C495        C  0.93484698  0.91901005  0.41148540     0.02000
C496        C  0.94663964  0.93900377  0.43330218    -0.30800
C497        C  0.87930948  0.82195279  0.31093243     0.03400
C498        C  0.86773590  0.80074888  0.28948986    -0.32500
H499        H  0.89716078  0.78969695  0.38366333     0.14500
H500        H  0.92126985  0.83177322  0.42720081     0.14300
H501        H  0.91695651  0.95136155  0.33870806     0.14100
H502        H  0.89284253  0.90926891  0.29516059     0.13200
C503        C  0.91939643  0.10836042  0.62497858     0.19500
C504        C  0.92244967  0.15389532  0.64191870    -0.09600
C505        C  0.90890629  0.17525174  0.66890010    -0.10500
C506        C  0.89221076  0.15129009  0.67889538     0.21100
C507        C  0.88912055  0.10577837  0.66188546    -0.12500
C508        C  0.90270866  0.08431844  0.63500931    -0.10800
C509        C  0.87832525  0.17363668  0.70654031     0.02000
C510        C  0.86711175  0.19420074  0.72949971    -0.30800
C511        C  0.93353021  0.08607331  0.59799422     0.03400
C512        C  0.94556833  0.06714628  0.57617173    -0.32500
H513        H  0.93532270  0.17273945  0.63448461     0.14500
H514        H  0.91148451  0.21031602  0.68213286     0.14300
H515        H  0.87626611  0.08691603  0.66946155     0.14100
H516        H  0.90023700  0.04902568  0.62217617     0.13200
C517        C  0.20355465  0.41363800  0.92901135     0.19500
C518        C  0.20278954  0.36485183  0.93732349    -0.09600
C519        C  0.19145107  0.33562022  0.91102423    -0.10500
C520        C  0.18083354  0.35506195  0.87630081     0.21100
C521        C  0.18169903  0.40379245  0.86782533    -0.12500
C522        C  0.19303103  0.43300262  0.89410815    -0.10800
C523        C  0.16867540  0.32536049  0.85010986     0.02000
C524        C  0.15795011  0.30152228  0.82860407    -0.30800
C525        C  0.21489368  0.44393247  0.95662446     0.03400
C526        C  0.22418003  0.46953666  0.98005345    -0.32500
H527        H  0.21084900  0.34950091  0.96426407     0.14500
H528        H  0.19085036  0.29801317  0.91795276     0.14300
H529        H  0.17351054  0.41923083  0.84114785     0.14100
H530        H  0.19349327  0.47066763  0.88741530     0.13200
C531        C  0.20229054  0.08569744  0.93358469     0.19500
C532        C  0.19078780  0.11958890  0.95399807    -0.09600
C533        C  0.17944495  0.14920994  0.92809748    -0.10500
C534        C  0.17955051  0.14509319  0.88165173     0.21100
C535        C  0.19111068  0.11133298  0.86124852    -0.12500
C536        C  0.20245542  0.08173440  0.88714003    -0.10800
C537        C  0.16750158  0.17465344  0.85498223     0.02000
C538        C  0.15704237  0.19815247  0.83240611    -0.30800
C539        C  0.21386067  0.05494361  0.96024339     0.03400
C540        C  0.22355426  0.02936343  0.98277779    -0.32500
H541        H  0.19054259  0.12298939  0.98987827     0.14500
H542        H  0.17053563  0.17509615  0.94425835     0.14300
H543        H  0.19127593  0.10773038  0.82538514     0.14100
H544        H  0.21128908  0.05568214  0.87098292     0.13200
C545        C  0.05032975  0.38982585  0.62936490     0.19500
C546        C  0.04844160  0.34170009  0.63980167    -0.09600
C547        C  0.06222956  0.31885825  0.66508212    -0.10500
C548        C  0.07796815  0.34403881  0.68005700     0.21100
C549        C  0.07982244  0.39218220  0.66974777    -0.12500
C550        C  0.06603980  0.41501330  0.64446459    -0.10800
C551        C  0.09221599  0.32043671  0.70581847     0.02000
C552        C  0.10397996  0.29992340  0.72730742    -0.30800
C553        C  0.03620254  0.41334875  0.60313364     0.03400
C554        C  0.02439884  0.43323991  0.58124659    -0.32500
H555        H  0.03635256  0.32186271  0.62834656     0.14500
H556        H  0.06064211  0.28162096  0.67287639     0.14300
H557        H  0.09192117  0.41200422  0.68116363     0.14100
H558        H  0.06764484  0.45222984  0.63663348     0.13200
C559        C  0.07760904  0.15334239  0.68228242     0.19500
C560        C  0.06953817  0.11085213  0.69687597    -0.09600
C561        C  0.05593029  0.08819097  0.67090873    -0.10500
C562        C  0.05033739  0.10792860  0.63024871     0.21100
C563        C  0.05839434  0.15045955  0.61571668    -0.12500
C564        C  0.07198820  0.17311944  0.64167970    -0.10800
C565        C  0.03631881  0.08468231  0.60350199     0.02000
C566        C  0.02453933  0.06545126  0.58103812    -0.30800
C567        C  0.09164552  0.17673137  0.70880978     0.03400
C568        C  0.10337410  0.19745336  0.73020500    -0.32500
H569        H  0.07376346  0.09527763  0.72823946     0.14500
H570        H  0.04978190  0.05534982  0.68250130     0.14300
H571        H  0.05416842  0.16607615  0.58437412     0.14100
H572        H  0.07811533  0.20600372  0.63011259     0.13200
loop_ 
_geom_bond_atom_site_label_1 
_geom_bond_atom_site_label_2 
_geom_bond_distance 
_geom_bond_site_symmetry_2 
_ccdc_geom_bond_type 
C1            C2   1.408       .  A
C1            C6   1.401       .  A
C1          C552   1.446       .  S
C2            C3   1.401       .  A
C2          C568   1.445       .  S
C3            C4   1.402       .  A
C3            H8   1.085       .  S
C4            C5   1.410       .  A
C4          C538   1.446       .  S
C5            C6   1.402       .  A
C5          C524   1.444       .  S
C6            H7   1.085       .  S
O9          Ni17   1.918   1_445  S
O9           C19   1.280       .  A
O10         Ni17   1.917       .  S
O10          C20   1.280       .  A
O11         Ni17   1.915   1_455  S
O11          C21   1.279       .  A
O12         Ni17   1.915   1_545  S
O12          C22   1.279       .  A
O13         Ni18   1.918       .  S
O13          C22   1.280       .  A
O14         Ni18   1.917   1_455  S
O14          C21   1.280   1_545  A
O15         Ni18   1.919       .  S
O15          C20   1.280   1_545  A
O16         Ni18   1.919   1_455  S
O16          C19   1.280       .  A
Ni17        Ni18   2.394   1_565  S
C19         C566   1.436       .  S
C20         C496   1.435       .  S
C21         C482   1.432       .  S
C22         C512   1.433       .  S
O23         Ni31   1.919   1_455  S
O23          C33   1.280       .  A
O24         Ni31   1.918       .  S
O24          C34   1.280       .  A
O25         Ni31   1.918   1_455  S
O25          C35   1.280       .  A
O26         Ni31   1.918       .  S
O26          C36   1.280       .  A
O27         Ni32   1.918       .  S
O27          C36   1.280       .  A
O28         Ni32   1.918   1_455  S
O28          C35   1.280       .  A
O29         Ni32   1.919       .  S
O29          C34   1.280       .  A
O30         Ni32   1.919   1_455  S
O30          C33   1.280       .  A
Ni31        Ni32   2.394       .  S
C33         C554   1.436       .  S
C34         C468   1.435       .  S
C35         C440   1.435       .  S
C36         C454   1.435       .  S
C37          C38   1.408       .  A
C37          C42   1.399       .  A
C37         C484   1.442       .  S
C38          C39   1.401       .  A
C38         C442   1.444       .  S
C39          C40   1.402       .  A
C39          H44   1.085       .  S
C40          C41   1.409       .  A
C40         C426   1.443       .  S
C41          C42   1.400       .  A
C41         C414   1.443       .  S
C42          H43   1.085       .  S
C45         C358   1.466       .  S
C45         C372   1.467   1_554  S
C45         C386   1.467       .  S
C45         C398   1.467   1_554  S
C46         C300   1.465   1_554  S
C46         C314   1.465   1_565  S
C46         C328   1.466       .  S
C46         C344   1.465   1_564  S
C47          C48   1.409       .  A
C47          C52   1.402       .  A
C47         C356   1.444       .  S
C48          C49   1.401       .  A
C48         C316   1.443       .  S
C49          C50   1.400       .  A
C49          H54   1.085       .  S
C50          C51   1.408       .  A
C50         C288   1.444       .  S
C51          C52   1.400       .  A
C51         C274   1.444       .  S
C52          H53   1.085       .  S
C55          C56   1.409       .  A
C55          C60   1.402       .  A
C55         C302   1.442       .  S
C56          C57   1.401       .  A
C56         C370   1.445       .  S
C57          C58   1.401       .  A
C57          H62   1.085       .  S
C58          C59   1.408       .  A
C58         C258   1.442       .  S
C59          C60   1.400       .  A
C59         C244   1.445       .  S
C60          H61   1.085       .  S
C63          C64   1.408       .  A
C63          C68   1.401       .  A
C63         C230   1.444       .  S
C64          C65   1.401       .  A
C64         C218   1.444       .  S
C65          C66   1.402       .  A
C65          H70   1.085       .  S
C66          C67   1.409       .  A
C66         C202   1.444       .  S
C67          C68   1.401       .  A
C67         C190   1.444       .  S
C68          H69   1.085       .  S
C71         C174   1.467   1_565  S
C71         C204   1.467   1_554  S
C71         C412   1.466       .  S
C71         C540   1.468   1_564  S
C72          C73   1.410       .  A
C72          C77   1.402       .  A
C72         C176   1.444       .  S
C73          C74   1.402       .  A
C73         C132   1.444       .  S
C74          C75   1.400       .  A
C74          H79   1.085       .  S
C75          C76   1.408       .  A
C75         C146   1.444       .  S
C76          C77   1.400       .  A
C76         C160   1.444       .  S
C77          H78   1.085       .  S
C80         C134   1.466       .  S
C80         C188   1.466   1_554  S
C80         C428   1.465       .  S
C80         C526   1.467   1_554  S
O81         Ni89   1.918       .  S
O81          C91   1.280       .  A
O82         Ni89   1.918       .  S
O82          C92   1.280   1_545  A
O83         Ni89   1.919       .  S
O83          C93   1.280   1_545  A
O84         Ni89   1.919       .  S
O84          C94   1.280       .  A
O85         Ni90   1.918   1_545  S
O85          C94   1.280       .  A
O86         Ni90   1.918       .  S
O86          C93   1.280       .  A
O87         Ni90   1.918       .  S
O87          C92   1.280       .  A
O88         Ni90   1.917   1_545  S
O88          C91   1.280       .  A
Ni89        Ni90   2.394   1_545  S
C91         C286   1.435       .  S
C92         C216   1.435       .  S
C93         C246   1.436       .  S
C94         C162   1.435       .  S
O95        Ni103   1.917       .  S
O95         C105   1.280       .  A
O96        Ni103   1.917       .  S
O96         C106   1.280       .  A
O97        Ni103   1.916       .  S
O97         C107   1.279       .  A
O98        Ni103   1.917       .  S
O98         C108   1.280       .  A
O99        Ni104   1.918       .  S
O99         C108   1.280       .  A
O100       Ni104   1.918       .  S
O100        C107   1.280       .  A
O101       Ni104   1.918       .  S
O101        C106   1.280       .  A
O102       Ni104   1.919       .  S
O102        C105   1.280       .  A
Ni103      Ni104   2.394       .  S
C105        C272   1.435       .  S
C106        C232   1.434       .  S
C107        C260   1.433       .  S
C108        C148   1.435       .  S
C109        C110   1.408       .  A
C109        C114   1.401       .  A
C109        C510   1.443       .  S
C110        C111   1.400       .  A
C110        C456   1.445       .  S
C111        C112   1.401       .  A
C111        H116   1.085       .  S
C112        C113   1.409       .  A
C112        C400   1.444       .  S
C113        C114   1.402       .  A
C113        C342   1.444       .  S
C114        H115   1.085       .  S
C117        C118   1.408       .  A
C117        C122   1.401       .  A
C117        C470   1.444       .  S
C118        C119   1.400       .  A
C118        C498   1.444       .  S
C119        C120   1.401       .  A
C119        H124   1.085       .  S
C120        C121   1.409       .  A
C120        C330   1.443       .  S
C121        C122   1.402       .  A
C121        C384   1.445       .  S
C122        H123   1.085       .  S
C125        C126   1.401       .  A
C125        C130   1.402       .  A
C125        C133   1.440       .  S
C126        C127   1.398       .  A
C126        H135   1.083       .  S
C127        C128   1.401       .  A
C127        H136   1.084       .  S
C128        C129   1.401       .  A
C128        C131   1.440       .  S
C129        C130   1.400       .  A
C129        H137   1.083       .  S
C130        H138   1.083       .  S
C131        C132   1.206       .  T
C133        C134   1.207       .  T
C139        C140   1.401       .  A
C139        C144   1.401       .  A
C139        C147   1.439       .  S
C140        C141   1.399       .  A
C140        H149   1.083       .  S
C141        C142   1.401       .  A
C141        H150   1.084       .  S
C142        C143   1.401       .  A
C142        C145   1.439       .  S
C143        C144   1.399       .  A
C143        H151   1.083       .  S
C144        H152   1.083       .  S
C145        C146   1.205       .  T
C147        C148   1.206       .  T
C153        C154   1.401       .  A
C153        C158   1.401       .  A
C153        C161   1.440       .  S
C154        C155   1.399       .  A
C154        H163   1.083       .  S
C155        C156   1.401       .  A
C155        H164   1.083       .  S
C156        C157   1.401       .  A
C156        C159   1.439       .  S
C157        C158   1.399       .  A
C157        H165   1.084       .  S
C158        H166   1.083       .  S
C159        C160   1.206       .  T
C161        C162   1.206       .  T
C167        C168   1.401       .  A
C167        C172   1.402       .  A
C167        C175   1.440       .  S
C168        C169   1.399       .  A
C168        H177   1.083       .  S
C169        C170   1.402       .  A
C169        H178   1.083       .  S
C170        C171   1.401       .  A
C170        C173   1.440       .  S
C171        C172   1.399       .  A
C171        H179   1.083       .  S
C172        H180   1.083       .  S
C173        C174   1.207       .  T
C175        C176   1.206       .  T
C181        C182   1.401       .  A
C181        C186   1.401       .  A
C181        C189   1.439       .  S
C182        C183   1.400       .  A
C182        H191   1.084       .  S
C183        C184   1.402       .  A
C183        H192   1.083       .  S
C184        C185   1.401       .  A
C184        C187   1.440       .  S
C185        C186   1.398       .  A
C185        H193   1.083       .  S
C186        H194   1.083       .  S
C187        C188   1.207       .  T
C189        C190   1.206       .  T
C195        C196   1.402       .  A
C195        C200   1.401       .  A
C195        C203   1.440       .  S
C196        C197   1.400       .  A
C196        H205   1.083       .  S
C197        C198   1.401       .  A
C197        H206   1.084       .  S
C198        C199   1.401       .  A
C198        C201   1.440       .  S
C199        C200   1.399       .  A
C199        H207   1.083       .  S
C200        H208   1.083       .  S
C201        C202   1.206       .  T
C203        C204   1.207       .  T
C209        C210   1.401       .  A
C209        C214   1.401       .  A
C209        C217   1.439       .  S
C210        C211   1.399       .  A
C210        H219   1.084       .  S
C211        C212   1.401       .  A
C211        H220   1.084       .  S
C212        C213   1.401       .  A
C212        C215   1.440       .  S
C213        C214   1.399       .  A
C213        H221   1.083       .  S
C214        H222   1.083       .  S
C215        C216   1.206       .  T
C217        C218   1.206       .  T
C223        C224   1.401       .  A
C223        C228   1.401       .  A
C223        C231   1.439       .  S
C224        C225   1.399       .  A
C224        H233   1.084       .  S
C225        C226   1.401       .  A
C225        H234   1.084       .  S
C226        C227   1.401       .  A
C226        C229   1.439       .  S
C227        C228   1.399       .  A
C227        H235   1.084       .  S
C228        H236   1.083       .  S
C229        C230   1.205       .  T
C231        C232   1.206       .  T
C237        C238   1.402       .  A
C237        C242   1.401       .  A
C237        C245   1.441       .  S
C238        C239   1.399       .  A
C238        H247   1.083       .  S
C239        C240   1.401       .  A
C239        H248   1.084       .  S
C240        C241   1.401       .  A
C240        C243   1.440       .  S
C241        C242   1.400       .  A
C241        H249   1.083       .  S
C242        H250   1.083       .  S
C243        C244   1.206       .  T
C245        C246   1.207       .  T
C251        C252   1.401       .  A
C251        C256   1.401       .  A
C251        C259   1.438       .  S
C252        C253   1.398       .  A
C252        H261   1.084       .  S
C253        C254   1.401       .  A
C253        H262   1.083       .  S
C254        C255   1.401       .  A
C254        C257   1.437       .  S
C255        C256   1.399       .  A
C255        H263   1.084       .  S
C256        H264   1.083       .  S
C257        C258   1.205       .  T
C259        C260   1.205       .  T
C265        C266   1.401       .  A
C265        C270   1.401       .  A
C265        C273   1.439       .  S
C266        C267   1.399       .  A
C266        H275   1.084       .  S
C267        C268   1.401       .  A
C267        H276   1.083       .  S
C268        C269   1.402       .  A
C268        C271   1.440       .  S
C269        C270   1.399       .  A
C269        H277   1.084       .  S
C270        H278   1.083       .  S
C271        C272   1.206       .  T
C273        C274   1.205       .  T
C279        C280   1.401       .  A
C279        C284   1.401       .  A
C279        C287   1.438       .  S
C280        C281   1.399       .  A
C280        H289   1.084       .  S
C281        C282   1.401       .  A
C281        H290   1.083       .  S
C282        C283   1.401       .  A
C282        C285   1.439       .  S
C283        C284   1.399       .  A
C283        H291   1.083       .  S
C284        H292   1.083       .  S
C285        C286   1.206       .  T
C287        C288   1.205       .  T
C293        C294   1.401       .  A
C293        C298   1.401       .  A
C293        C301   1.437       .  S
C294        C295   1.397       .  A
C294        H303   1.084       .  S
C295        C296   1.400       .  A
C295        H304   1.084       .  S
C296        C297   1.402       .  A
C296        C299   1.438       .  S
C297        C298   1.399       .  A
C297        H305   1.083       .  S
C298        H306   1.084       .  S
C299        C300   1.206       .  T
C301        C302   1.205       .  T
C307        C308   1.401       .  A
C307        C312   1.401       .  A
C307        C315   1.438       .  S
C308        C309   1.399       .  A
C308        H317   1.084       .  S
C309        C310   1.401       .  A
C309        H318   1.084       .  S
C310        C311   1.401       .  A
C310        C313   1.438       .  S
C311        C312   1.398       .  A
C311        H319   1.083       .  S
C312        H320   1.083       .  S
C313        C314   1.206       .  T
C315        C316   1.205       .  T
C321        C322   1.401       .  A
C321        C326   1.401       .  A
C321        C329   1.439       .  S
C322        C323   1.399       .  A
C322        H331   1.084       .  S
C323        C324   1.401       .  A
C323        H332   1.083       .  S
C324        C325   1.402       .  A
C324        C327   1.439       .  S
C325        C326   1.399       .  A
C325        H333   1.084       .  S
C326        H334   1.084       .  S
C327        C328   1.206       .  T
C329        C330   1.206       .  T
C335        C336   1.402       .  A
C335        C340   1.401       .  A
C335        C343   1.439       .  S
C336        C337   1.399       .  A
C336        H345   1.084       .  S
C337        C338   1.401       .  A
C337        H346   1.083       .  S
C338        C339   1.401       .  A
C338        C341   1.439       .  S
C339        C340   1.398       .  A
C339        H347   1.083       .  S
C340        H348   1.083       .  S
C341        C342   1.206       .  T
C343        C344   1.206       .  T
C349        C350   1.402       .  A
C349        C354   1.401       .  A
C349        C357   1.439       .  S
C350        C351   1.400       .  A
C350        H359   1.083       .  S
C351        C352   1.401       .  A
C351        H360   1.084       .  S
C352        C353   1.401       .  A
C352        C355   1.439       .  S
C353        C354   1.398       .  A
C353        H361   1.083       .  S
C354        H362   1.084       .  S
C355        C356   1.206       .  T
C357        C358   1.207       .  T
C363        C364   1.401       .  A
C363        C368   1.402       .  A
C363        C371   1.441       .  S
C364        C365   1.399       .  A
C364        H373   1.083       .  S
C365        C366   1.402       .  A
C365        H374   1.083       .  S
C366        C367   1.402       .  A
C366        C369   1.441       .  S
C367        C368   1.400       .  A
C367        H375   1.083       .  S
C368        H376   1.084       .  S
C369        C370   1.207       .  T
C371        C372   1.207       .  T
C377        C378   1.401       .  A
C377        C382   1.402       .  A
C377        C385   1.440       .  S
C378        C379   1.399       .  A
C378        H387   1.083       .  S
C379        C380   1.402       .  A
C379        H388   1.083       .  S
C380        C381   1.401       .  A
C380        C383   1.440       .  S
C381        C382   1.399       .  A
C381        H389   1.084       .  S
C382        H390   1.083       .  S
C383        C384   1.206       .  T
C385        C386   1.207       .  T
C391        C392   1.401       .  A
C391        C396   1.401       .  A
C391        C399   1.439       .  S
C392        C393   1.399       .  A
C392        H401   1.083       .  S
C393        C394   1.401       .  A
C393        H402   1.083       .  S
C394        C395   1.402       .  A
C394        C397   1.440       .  S
C395        C396   1.400       .  A
C395        H403   1.083       .  S
C396        H404   1.084       .  S
C397        C398   1.207       .  T
C399        C400   1.206       .  T
C405        C406   1.402       .  A
C405        C410   1.401       .  A
C405        C413   1.439       .  S
C406        C407   1.399       .  A
C406        H415   1.084       .  S
C407        C408   1.401       .  A
C407        H416   1.083       .  S
C408        C409   1.402       .  A
C408        C411   1.439       .  S
C409        C410   1.399       .  A
C409        H417   1.083       .  S
C410        H418   1.084       .  S
C411        C412   1.206       .  T
C413        C414   1.205       .  T
C419        C420   1.401       .  A
C419        C424   1.401       .  A
C419        C427   1.439       .  S
C420        C421   1.399       .  A
C420        H429   1.083       .  S
C421        C422   1.401       .  A
C421        H430   1.084       .  S
C422        C423   1.401       .  A
C422        C425   1.439       .  S
C423        C424   1.399       .  A
C423        H431   1.083       .  S
C424        H432   1.084       .  S
C425        C426   1.205       .  T
C427        C428   1.206       .  T
C433        C434   1.401       .  A
C433        C438   1.402       .  A
C433        C441   1.439       .  S
C434        C435   1.399       .  A
C434        H443   1.083       .  S
C435        C436   1.401       .  A
C435        H444   1.083       .  S
C436        C437   1.402       .  A
C436        C439   1.440       .  S
C437        C438   1.399       .  A
C437        H445   1.083       .  S
C438        H446   1.084       .  S
C439        C440   1.206       .  T
C441        C442   1.206       .  T
C447        C448   1.401       .  A
C447        C452   1.401       .  A
C447        C455   1.440       .  S
C448        C449   1.399       .  A
C448        H457   1.083       .  S
C449        C450   1.401       .  A
C449        H458   1.084       .  S
C450        C451   1.401       .  A
C450        C453   1.440       .  S
C451        C452   1.399       .  A
C451        H459   1.083       .  S
C452        H460   1.083       .  S
C453        C454   1.206       .  T
C455        C456   1.206       .  T
C461        C462   1.401       .  A
C461        C466   1.401       .  A
C461        C469   1.439       .  S
C462        C463   1.399       .  A
C462        H471   1.084       .  S
C463        C464   1.402       .  A
C463        H472   1.083       .  S
C464        C465   1.401       .  A
C464        C467   1.440       .  S
C465        C466   1.399       .  A
C465        H473   1.084       .  S
C466        H474   1.083       .  S
C467        C468   1.206       .  T
C469        C470   1.206       .  T
C475        C476   1.401       .  A
C475        C480   1.401       .  A
C475        C483   1.436       .  S
C476        C477   1.398       .  A
C476        H485   1.083       .  S
C477        C478   1.401       .  A
C477        H486   1.084       .  S
C478        C479   1.401       .  A
C478        C481   1.437       .  S
C479        C480   1.398       .  A
C479        H487   1.083       .  S
C480        H488   1.084       .  S
C481        C482   1.204       .  T
C483        C484   1.204       .  T
C489        C490   1.401       .  A
C489        C494   1.401       .  A
C489        C497   1.439       .  S
C490        C491   1.399       .  A
C490        H499   1.084       .  S
C491        C492   1.402       .  A
C491        H500   1.083       .  S
C492        C493   1.401       .  A
C492        C495   1.440       .  S
C493        C494   1.399       .  A
C493        H501   1.084       .  S
C494        H502   1.083       .  S
C495        C496   1.206       .  T
C497        C498   1.206       .  T
C503        C504   1.401       .  A
C503        C508   1.402       .  A
C503        C511   1.438       .  S
C504        C505   1.398       .  A
C504        H513   1.083       .  S
C505        C506   1.401       .  A
C505        H514   1.083       .  S
C506        C507   1.401       .  A
C506        C509   1.438       .  S
C507        C508   1.399       .  A
C507        H515   1.083       .  S
C508        H516   1.084       .  S
C509        C510   1.205       .  T
C511        C512   1.205       .  T
C517        C518   1.402       .  A
C517        C522   1.401       .  A
C517        C525   1.440       .  S
C518        C519   1.400       .  A
C518        H527   1.084       .  S
C519        C520   1.401       .  A
C519        H528   1.084       .  S
C520        C521   1.401       .  A
C520        C523   1.440       .  S
C521        C522   1.399       .  A
C521        H529   1.084       .  S
C522        H530   1.083       .  S
C523        C524   1.206       .  T
C525        C526   1.207       .  T
C531        C532   1.402       .  A
C531        C536   1.401       .  A
C531        C539   1.441       .  S
C532        C533   1.400       .  A
C532        H541   1.083       .  S
C533        C534   1.402       .  A
C533        H542   1.083       .  S
C534        C535   1.402       .  A
C534        C537   1.441       .  S
C535        C536   1.399       .  A
C535        H543   1.083       .  S
C536        H544   1.083       .  S
C537        C538   1.207       .  T
C539        C540   1.208       .  T
C545        C546   1.402       .  A
C545        C550   1.401       .  A
C545        C553   1.441       .  S
C546        C547   1.400       .  A
C546        H555   1.083       .  S
C547        C548   1.402       .  A
C547        H556   1.084       .  S
C548        C549   1.401       .  A
C548        C551   1.440       .  S
C549        C550   1.399       .  A
C549        H557   1.083       .  S
C550        H558   1.083       .  S
C551        C552   1.206       .  T
C553        C554   1.207       .  T
C559        C560   1.401       .  A
C559        C564   1.401       .  A
C559        C567   1.439       .  S
C560        C561   1.400       .  A
C560        H569   1.083       .  S
C561        C562   1.402       .  A
C561        H570   1.083       .  S
C562        C563   1.401       .  A
C562        C565   1.440       .  S
C563        C564   1.399       .  A
C563        H571   1.083       .  S
C564        H572   1.084       .  S
C565        C566   1.206       .  T
C567        C568   1.206       .  T
