geometry optimzed in LAMMPS
_audit_creation_date              2020-11-30 
_audit_creation_method            'lammps2cif' 
_symmetry_space_group_name_H-M    'P1' 
_symmetry_Int_Tables_number       1 
_symmetry_cell_setting            triclinic 
loop_ 
_symmetry_equiv_pos_as_xyz 
  x,y,z 
_cell_length_a                    27.81308214 
_cell_length_b                    27.81162982178977 
_cell_length_c                    48.729879271365405 
_cell_angle_alpha                 89.92991563048551 
_cell_angle_beta                  89.95338673510514 
_cell_angle_gamma                 89.9993499854389 
loop_ 
_atom_site_label 
_atom_site_type_symbol 
_atom_site_fract_x 
_atom_site_fract_y 
_atom_site_fract_z 
_atom_site_charge 
Fe1        Fe  0.99753195  0.37852997  0.87802433     1.65800
Fe2        Fe  0.43667798  0.37722559  0.93940948     1.73200
Fe3        Fe  0.06008951  0.37735621  0.93876642     1.54400
O4          O  0.09022683  0.32576468  0.91358235    -0.79300
O5          O  0.45814141  0.43134748  0.96559916    -0.77700
O6          O  0.04749411  0.32391621  0.87484829    -0.81900
O7          O  0.05052993  0.43024708  0.87516343    -0.76700
O8          O  0.03930400  0.32228728  0.96463468    -0.78500
O9          O  0.40568946  0.42967993  0.91511973    -0.81200
C10         C  0.08237079  0.44703766  0.89105032     0.99500
C11         C  0.08145308  0.30899655  0.88993683     1.07000
O12         O  0.49810531  0.37770586  0.91872297    -1.10200
O13         O  0.40742527  0.32325254  0.91575107    -0.72600
O14         O  0.44447951  0.32688743  0.87517565    -0.76100
O15         O  0.08890417  0.43210669  0.91533358    -0.76800
C16         C  0.41329511  0.30927883  0.89125324     0.98400
O17         O  0.44755189  0.43326828  0.87608036    -0.74800
O18         O  0.45920247  0.32449117  0.96640562    -0.80000
C19         C  0.49833465  0.44641639  0.97424558     1.01100
C20         C  0.49933898  0.30698590  0.97355711     1.07000
O21         O  0.03830294  0.42919158  0.96652660    -0.75600
C22         C  0.41394833  0.44750732  0.89163925     1.05300
Fe23       Fe  0.24750840  0.12851073  0.87468366     1.65800
Fe24       Fe  0.24910067  0.18956600  0.81335598     1.73200
Fe25       Fe  0.24896623  0.06614752  0.81388471     1.54400
O26         O  0.30049415  0.03598198  0.83909423    -0.79300
O27         O  0.19504734  0.16818667  0.78709786    -0.77700
O28         O  0.30210019  0.07853204  0.87789135    -0.81900
O29         O  0.19577126  0.07551817  0.87740841    -0.76700
O30         O  0.30409299  0.08701498  0.78807982    -0.78500
O31         O  0.19657946  0.22052640  0.83761749    -0.81200
C32         C  0.17908527  0.04369729  0.86147714     0.99500
C33         C  0.31713816  0.04467424  0.86277716     1.07000
O34         O  0.24852471  0.12806898  0.83398528    -1.10200
O35         O  0.30300526  0.21869747  0.83711317    -0.72600
O36         O  0.29913888  0.18155773  0.87766697    -0.76100
O37         O  0.19416108  0.03720860  0.83722444    -0.76800
C38         C  0.31684260  0.21277185  0.86163703     0.98400
O39         O  0.19277210  0.17849523  0.87659820    -0.74800
O40         O  0.30191656  0.16712065  0.78638050    -0.80000
C41         C  0.17999597  0.12801388  0.77841334     1.01100
C42         C  0.31942283  0.12700192  0.77919743     1.07000
O43         O  0.19720810  0.08801820  0.78610484    -0.75600
C44         C  0.17863965  0.21219263  0.86106225     1.05300
Fe45       Fe  0.24870564  0.37563019  0.62463914     1.65800
Fe46       Fe  0.18735461  0.37732368  0.56349446     1.73200
Fe47       Fe  0.31077217  0.37719710  0.56367134     1.54400
O48         O  0.34107550  0.42869288  0.58882686    -0.79300
O49         O  0.20856396  0.32327514  0.53721657    -0.77700
O50         O  0.29863824  0.43026963  0.62771647    -0.81900
O51         O  0.30176623  0.32395355  0.62720899    -0.76700
O52         O  0.28974643  0.43237503  0.53793796    -0.78500
O53         O  0.15650287  0.32483612  0.58783793    -0.81200
C54         C  0.33349793  0.30726187  0.61119074     0.99500
C55         C  0.33245689  0.44531638  0.61253393     1.07000
O56         O  0.24895619  0.37672075  0.58394478    -1.10200
O57         O  0.15839658  0.43123565  0.58730359    -0.72600
O58         O  0.19560929  0.42720224  0.62778640    -0.76100
O59         O  0.33984942  0.32233637  0.58691287    -0.76800
C60         C  0.16437890  0.44498154  0.61182535     0.98400
O61         O  0.19880629  0.32081437  0.62666373    -0.74800
O62         O  0.20964234  0.43008903  0.53644297    -0.80000
C63         C  0.24867268  0.30823988  0.52840214     1.01100
C64         C  0.24969548  0.44764645  0.52915581     1.07000
O65         O  0.28872324  0.32546851  0.53594257    -0.75600
C66         C  0.16499827  0.30677438  0.61122231     1.05300
Fe67       Fe  0.99865721  0.12564519  0.62796267     1.65800
Fe68       Fe  0.99935546  0.06483453  0.68938265     1.73200
Fe69       Fe  0.99923943  0.18824565  0.68867541     1.54400
O70         O  0.05097482  0.21840467  0.66354905    -0.79300
O71         O  0.44506284  0.08632046  0.71551242    -0.77700
O72         O  0.05333632  0.17555470  0.62487833    -0.81900
O73         O  0.44700602  0.17869262  0.62497336    -0.76700
O74         O  0.05417216  0.16749258  0.71457585    -0.78500
O75         O  0.44707741  0.03385999  0.66501295    -0.81200
C76         C  0.43000824  0.21050233  0.64082534     0.99500
C77         C  0.06804899  0.20956124  0.63997044     1.07000
O78         O  0.99906467  0.12624473  0.66866279    -1.10200
O79         O  0.05349861  0.03553006  0.66583143    -0.72600
O80         O  0.05030542  0.07258120  0.62524161    -0.76100
O81         O  0.44463389  0.21699168  0.66515669    -0.76800
C82         C  0.06773637  0.04139989  0.64136896     0.98400
O83         O  0.44392986  0.07567018  0.62593082    -0.74800
O84         O  0.05192339  0.08738714  0.71641813    -0.80000
C85         C  0.42999927  0.12652245  0.72415972     1.01100
C86         C  0.06943240  0.12753569  0.72352545     1.07000
O87         O  0.44726959  0.16647859  0.71642428    -0.75600
C88         C  0.42951245  0.04208800  0.64147888     1.05300
Fe89       Fe  0.24963455  0.12723361  0.37799092     1.65800
Fe90       Fe  0.31086176  0.12767522  0.43918990     1.73200
Fe91       Fe  0.18744855  0.12758539  0.43891802     1.54400
O92         O  0.15710976  0.17942646  0.41394058    -0.79300
O93         O  0.28957336  0.07333423  0.46534206    -0.77700
O94         O  0.19975738  0.18195976  0.37514971    -0.81900
O95         O  0.19653012  0.07563794  0.37513056    -0.76700
O96         O  0.20842444  0.18244055  0.46478542    -0.78500
O97         O  0.34161960  0.07548098  0.41467751    -0.81200
C98         C  0.16483188  0.05855644  0.39106561     0.99500
C99         C  0.16583916  0.19661347  0.39035848     1.07000
O100        O  0.24930661  0.12747430  0.41868945    -1.10200
O101        O  0.34001323  0.18187463  0.41560521    -0.72600
O102        O  0.30271050  0.17886645  0.37513450    -0.76100
O103        O  0.15851619  0.07305493  0.41544347    -0.76800
C104        C  0.33399705  0.19621576  0.39118261     0.98400
O105        O  0.29955636  0.07246954  0.37573082    -0.74800
O106        O  0.28854012  0.18014469  0.46632800    -0.80000
C107        C  0.24945409  0.05824244  0.47412867     1.01100
C108        C  0.24846561  0.19766085  0.47358545     1.07000
O109        O  0.20942687  0.07551335  0.46655167    -0.75600
C110        C  0.33323117  0.05799326  0.39116038     1.05300
Fe111      Fe  0.49968026  0.37728823  0.37468980     1.65800
Fe112      Fe  0.49881607  0.31577892  0.31360773     1.73200
Fe113      Fe  0.49888963  0.43919916  0.31365307     1.54400
O114        O  0.44715524  0.46960901  0.33865431    -0.79300
O115        O  0.05310059  0.33692918  0.28741305    -0.77700
O116        O  0.44495664  0.42715948  0.37753777    -0.81900
O117        O  0.05126764  0.43041963  0.37735700    -0.76700
O118        O  0.44393373  0.41808845  0.28786732    -0.78500
O119        O  0.05105413  0.28506008  0.33812394    -0.81200
C120        C  0.06822008  0.46206668  0.36134309     0.98700
C121        C  0.43015673  0.46098302  0.36229254     1.07000
O122        O  0.49914154  0.37743379  0.33399342    -1.10200
O123        O  0.44467576  0.28682467  0.33729704    -0.72600
O124        O  0.44810369  0.32417405  0.37773933    -0.76100
O125        O  0.05352841  0.46829898  0.33699179    -0.76800
C126        C  0.43057514  0.29288180  0.36175743     0.98400
O127        O  0.05449655  0.32741982  0.37693924    -0.74800
O128        O  0.44630422  0.33797379  0.28643637    -0.80000
C129        C  0.06815022  0.37701252  0.27854557     1.01100
C130        C  0.42874549  0.37800266  0.27911466     1.07000
O131        O  0.05085173  0.41707952  0.28602120    -0.75600
C132        C  0.06877675  0.29360029  0.36156604     1.05300
Fe133      Fe  0.50004217  0.12787420  0.12474515     1.65800
Fe134      Fe  0.06117754  0.12703887  0.06345529     1.73200
Fe135      Fe  0.43776897  0.12712314  0.06390141     1.54400
O136        O  0.40753839  0.07537010  0.08898262    -0.79300
O137        O  0.03982665  0.18131136  0.03727552    -0.77700
O138        O  0.45012260  0.07320192  0.12776584    -0.81900
O139        O  0.44699216  0.17953443  0.12757266    -0.76700
O140        O  0.45868923  0.07219876  0.03804168    -0.78500
O141        O  0.09203890  0.17933816  0.08786095    -0.81200
C142        C  0.41522851  0.19645173  0.11165449     0.99500
C143        C  0.41625126  0.05838736  0.11260401     1.07000
O144        O  0.49965732  0.12736063  0.08404462    -1.10200
O145        O  0.09032600  0.07292155  0.08709858    -0.72600
O146        O  0.05310221  0.07623453  0.12762568    -0.76100
O147        O  0.40882792  0.18172388  0.08733732    -0.76800
C148        C  0.08435451  0.05875882  0.11156891     0.98400
O149        O  0.04999758  0.18261482  0.12684363    -0.74800
O150        O  0.03879491  0.07445055  0.03637922    -0.80000
C151        C  0.49967191  0.19637906  0.02855479     1.01100
C152        C  0.49869603  0.05694576  0.02917368     1.07000
O153        O  0.45967200  0.17910441  0.03620147    -0.75600
C154        C  0.08368773  0.19696876  0.11135922     1.05300
Fe155      Fe  0.25006650  0.37782039  0.12806449     1.65800
Fe156      Fe  0.24892605  0.43904179  0.18924511     1.73200
Fe157      Fe  0.24903221  0.31561655  0.18900138     1.54400
O158        O  0.19737426  0.28532342  0.16393217    -0.79300
O159        O  0.30309084  0.41775683  0.21544831    -0.77700
O160        O  0.19540149  0.32790042  0.12509136    -0.81900
O161        O  0.30171463  0.32475097  0.12533769    -0.76700
O162        O  0.19401276  0.33659874  0.21482312    -0.78500
O163        O  0.30129296  0.46986488  0.16483099    -0.81200
C164        C  0.31856895  0.29300829  0.14130757     0.99500
C165        C  0.18052345  0.29400981  0.14027906     1.07000
O166        O  0.24934571  0.37748164  0.16876063    -1.10200
O167        O  0.19489972  0.46813723  0.16555385    -0.72600
O168        O  0.19846311  0.43090921  0.12507489    -0.76100
O169        O  0.30373562  0.28663146  0.16563001    -0.76800
C170        C  0.18088375  0.46215995  0.14108119     0.98400
O171        O  0.30485595  0.42773426  0.12593534    -0.74800
O172        O  0.19629632  0.41671305  0.21633724    -0.80000
C173        C  0.31817167  0.37763366  0.22423014     1.01100
C174        C  0.17876652  0.37664331  0.22361704     1.07000
O175        O  0.30093217  0.33759728  0.21666993    -0.75600
C176        C  0.31910389  0.46144303  0.14138305     1.05300
C177        C  0.14362663  0.26289403  0.12990419    -0.10900
C178        C  0.11496167  0.23413526  0.12125620    -0.12500
C179        C  0.35535912  0.26171616  0.13100050    -0.10900
C180        C  0.38392933  0.23318652  0.12201293    -0.12500
C181        C  0.38518128  0.02139371  0.12295219    -0.10900
C182        C  0.35636842  0.49266989  0.13152059    -0.12500
C183        C  0.11555214  0.02196383  0.12187770    -0.10900
C184        C  0.14413896  0.49335197  0.13071574    -0.12500
C185        C  0.10689527  0.37697432  0.25907626    -0.10900
C186        C  0.13964611  0.37670528  0.24284343    -0.12500
C187        C  0.38964676  0.37785396  0.25989850    -0.10900
C188        C  0.35689861  0.37759268  0.24368721    -0.12500
C189        C  0.10596953  0.26238231  0.37150937    -0.10900
C190        C  0.13474022  0.23364621  0.38009514    -0.12500
C191        C  0.39379257  0.26172199  0.37212876    -0.10900
C192        C  0.36518482  0.23307424  0.38092427    -0.12500
C193        C  0.36445605  0.02084143  0.38119449    -0.10900
C194        C  0.39316999  0.49209019  0.37258012    -0.12500
C195        C  0.13351758  0.02189664  0.38065631    -0.10900
C196        C  0.10496545  0.49340028  0.37163672    -0.12500
C197        C  0.24940237  0.01950815  0.49363667    -0.10900
C198        C  0.24961984  0.48678843  0.50991138    -0.12500
C199        C  0.24850381  0.23677058  0.49277039    -0.10900
C200        C  0.24869771  0.26954192  0.50895038    -0.12500
C201        C  0.13374477  0.26946820  0.62102725    -0.10900
C202        C  0.10502651  0.24063537  0.62959124    -0.12500
C203        C  0.36480236  0.27038180  0.62139799    -0.10900
C204        C  0.39330849  0.24176790  0.63037904    -0.12500
C205        C  0.39233784  0.01080073  0.63161670    -0.10900
C206        C  0.36356704  0.48215575  0.62296735    -0.12500
C207        C  0.13320827  0.48164047  0.62229456    -0.10900
C208        C  0.10457325  0.01018031  0.63114500    -0.12500
C209        C  0.14130896  0.12780775  0.75893211    -0.10900
C210        C  0.10855540  0.12772251  0.74272445    -0.12500
C211        C  0.35856982  0.12687841  0.75995599    -0.10900
C212        C  0.39128669  0.12679794  0.74368135    -0.12500
C213        C  0.49862374  0.01784683  0.00995103    -0.10900
C214        C  0.49858317  0.48511538  0.99372634    -0.12500
C215        C  0.49950657  0.23511178  0.00905474    -0.10900
C216        C  0.49949065  0.26785013  0.99279660    -0.12500
C217        C  0.14137069  0.24349203  0.87084268    -0.10900
C218        C  0.11255235  0.27214260  0.87946890    -0.12500
C219        C  0.35352207  0.24397450  0.87204109    -0.10900
C220        C  0.38207073  0.27254848  0.88092891    -0.12500
C221        C  0.35400065  0.01359862  0.87324797    -0.10900
C222        C  0.38266601  0.48477872  0.88185459    -0.12500
C223        C  0.11361988  0.48385589  0.88069871    -0.10900
C224        C  0.14221690  0.01242706  0.87174797    -0.12500
Fe225      Fe  0.99753194  0.87852998  0.87802432     1.65800
Fe226      Fe  0.43667801  0.87722567  0.93940946     1.73200
Fe227      Fe  0.06008937  0.87735630  0.93876650     1.54400
O228        O  0.09022685  0.82576481  0.91358234    -0.79300
O229        O  0.45814143  0.93134756  0.96559915    -0.77700
O230        O  0.04749415  0.82391611  0.87484827    -0.81900
O231        O  0.05052997  0.93024704  0.87516344    -0.76700
O232        O  0.03930396  0.82228734  0.96463474    -0.78500
O233        O  0.40568951  0.92968003  0.91511973    -0.81200
C234        C  0.08237086  0.94703758  0.89105036     0.99500
C235        C  0.08145295  0.80899666  0.88993682     1.07000
O236        O  0.49810533  0.87770595  0.91872297    -1.10200
O237        O  0.40742531  0.82325266  0.91575108    -0.72600
O238        O  0.44447951  0.82688740  0.87517567    -0.76100
O239        O  0.08890413  0.93210677  0.91533361    -0.76800
C240        C  0.41329512  0.80927900  0.89125324     0.98400
O241        O  0.44755193  0.93326833  0.87608034    -0.74800
O242        O  0.45920251  0.82449133  0.96640563    -0.80000
C243        C  0.49833468  0.94641649  0.97424558     1.01100
C244        C  0.49933901  0.80698595  0.97355711     1.07000
O245        O  0.03830292  0.92919170  0.96652663    -0.75600
C246        C  0.41394830  0.94750731  0.89163921     1.05300
Fe247      Fe  0.24750842  0.62851079  0.87468365     1.65800
Fe248      Fe  0.24910071  0.68956599  0.81335593     1.73200
Fe249      Fe  0.24896623  0.56614756  0.81388473     1.54400
O250        O  0.30049408  0.53598213  0.83909422    -0.79300
O251        O  0.19504732  0.66818669  0.78709787    -0.77700
O252        O  0.30210016  0.57853213  0.87789134    -0.81900
O253        O  0.19577124  0.57551829  0.87740841    -0.76700
O254        O  0.30409305  0.58701502  0.78807985    -0.78500
O255        O  0.19657948  0.72052649  0.83761748    -0.81200
C256        C  0.17908516  0.54369745  0.86147710     0.99500
C257        C  0.31713812  0.54467433  0.86277715     1.07000
O258        O  0.24852473  0.62806900  0.83398528    -1.10200
O259        O  0.30300525  0.71869763  0.83711316    -0.72600
O260        O  0.29913893  0.68155777  0.87766693    -0.76100
O261        O  0.19416104  0.53720874  0.83722444    -0.76800
C262        C  0.31684246  0.71277202  0.86163701     0.98400
O263        O  0.19277216  0.67849540  0.87659820    -0.74800
O264        O  0.30191666  0.66712070  0.78638046    -0.80000
C265        C  0.17999604  0.62801374  0.77841333     1.01100
C266        C  0.31942294  0.62700189  0.77919743     1.07000
O267        O  0.19720820  0.58801824  0.78610482    -0.75600
C268        C  0.17863987  0.71219269  0.86106226     1.05300
Fe269      Fe  0.24870553  0.87563026  0.62463910     1.65800
Fe270      Fe  0.18735452  0.87732358  0.56349447     1.73200
Fe271      Fe  0.31077207  0.87719705  0.56367134     1.54400
O272        O  0.34107543  0.92869274  0.58882687    -0.79300
O273        O  0.20856396  0.82327502  0.53721665    -0.77700
O274        O  0.29863820  0.93026971  0.62771646    -0.81900
O275        O  0.30176605  0.82395355  0.62720895    -0.76700
O276        O  0.28974636  0.93237497  0.53793796    -0.78500
O277        O  0.15650277  0.82483606  0.58783791    -0.81200
C278        C  0.33349774  0.80726191  0.61119075     0.99500
C279        C  0.33245675  0.94531622  0.61253393     1.07000
O280        O  0.24895610  0.87672062  0.58394476    -1.10200
O281        O  0.15839639  0.93123555  0.58730359    -0.72600
O282        O  0.19560916  0.92720228  0.62778637    -0.76100
O283        O  0.33984936  0.82233637  0.58691289    -0.76800
C284        C  0.16437885  0.94498146  0.61182530     0.98400
O285        O  0.19880614  0.82081447  0.62666373    -0.74800
O286        O  0.20964228  0.93008892  0.53644297    -0.80000
C287        C  0.24867271  0.80823983  0.52840219     1.01100
C288        C  0.24969539  0.94764637  0.52915574     1.07000
O289        O  0.28872324  0.82546843  0.53594260    -0.75600
C290        C  0.16499816  0.80677436  0.61122230     1.05300
Fe291      Fe  0.99865725  0.62564516  0.62796268     1.65800
Fe292      Fe  0.99935546  0.56483462  0.68938262     1.73200
Fe293      Fe  0.99923950  0.68824570  0.68867546     1.54400
O294        O  0.05097492  0.71840466  0.66354906    -0.79300
O295        O  0.44506292  0.58632050  0.71551248    -0.77700
O296        O  0.05333634  0.67555466  0.62487831    -0.81900
O297        O  0.44700583  0.67869251  0.62497340    -0.76700
O298        O  0.05417221  0.66749260  0.71457587    -0.78500
O299        O  0.44707730  0.53385999  0.66501299    -0.81200
C300        C  0.43000833  0.71050244  0.64082536     0.99500
C301        C  0.06804900  0.70956124  0.63997044     1.07000
O302        O  0.99906485  0.62624485  0.66866278    -1.10200
O303        O  0.05349862  0.53553005  0.66583142    -0.72600
O304        O  0.05030552  0.57258117  0.62524159    -0.76100
O305        O  0.44463390  0.71699177  0.66515667    -0.76800
C306        C  0.06773656  0.54139984  0.64136896     0.98400
O307        O  0.44392979  0.57567016  0.62593083    -0.74800
O308        O  0.05192347  0.58738718  0.71641809    -0.80000
C309        C  0.42999929  0.62652232  0.72415979     1.01100
C310        C  0.06943247  0.62753563  0.72352544     1.07000
O311        O  0.44726959  0.66647862  0.71642431    -0.75600
C312        C  0.42951226  0.54208783  0.64147895     1.05300
Fe313      Fe  0.24963455  0.62723353  0.37799093     1.65800
Fe314      Fe  0.31086180  0.62767511  0.43918992     1.73200
Fe315      Fe  0.18744869  0.62758528  0.43891800     1.54400
O316        O  0.15710985  0.67942633  0.41394060    -0.79300
O317        O  0.28957340  0.57333423  0.46534210    -0.77700
O318        O  0.19975733  0.68195967  0.37514971    -0.81900
O319        O  0.19653017  0.57563776  0.37513056    -0.76700
O320        O  0.20842455  0.68244038  0.46478542    -0.78500
O321        O  0.34161954  0.57548085  0.41467754    -0.81200
C322        C  0.16483185  0.55855648  0.39106558     0.99500
C323        C  0.16583914  0.69661341  0.39035849     1.07000
O324        O  0.24930672  0.62747426  0.41868946    -1.10200
O325        O  0.34001324  0.68187440  0.41560518    -0.72600
O326        O  0.30271044  0.67886639  0.37513452    -0.76100
O327        O  0.15851621  0.57305482  0.41544345    -0.76800
C328        C  0.33399691  0.69621569  0.39118259     0.98400
O329        O  0.29955643  0.57246950  0.37573078    -0.74800
O330        O  0.28854018  0.68014462  0.46632795    -0.80000
C331        C  0.24945407  0.55824248  0.47412867     1.01100
C332        C  0.24846569  0.69766072  0.47358541     1.07000
O333        O  0.20942693  0.57551330  0.46655165    -0.75600
C334        C  0.33323106  0.55799316  0.39116035     1.05300
Fe335      Fe  0.49968023  0.87728820  0.37468978     1.65800
Fe336      Fe  0.49881598  0.81577901  0.31360773     1.73200
Fe337      Fe  0.49888967  0.93919925  0.31365307     1.54400
O338        O  0.44715533  0.96960906  0.33865432    -0.79300
O339        O  0.05310044  0.83692932  0.28741304    -0.77700
O340        O  0.44495660  0.92715947  0.37753776    -0.81900
O341        O  0.05126770  0.93041949  0.37735697    -0.76700
O342        O  0.44393378  0.91808862  0.28786730    -0.78500
O343        O  0.05105415  0.78506015  0.33812390    -0.81200
C344        C  0.06822020  0.96206668  0.36134311     0.98700
C345        C  0.43015676  0.96098308  0.36229255     1.07000
O346        O  0.49914146  0.87743387  0.33399341    -1.10200
O347        O  0.44467568  0.78682470  0.33729700    -0.72600
O348        O  0.44810364  0.82417400  0.37773932    -0.76100
O349        O  0.05352840  0.96829899  0.33699181    -0.76800
C350        C  0.43057505  0.79288190  0.36175738     0.98400
O351        O  0.05449656  0.82741980  0.37693925    -0.74800
O352        O  0.44630408  0.83797390  0.28643637    -0.80000
C353        C  0.06815018  0.87701254  0.27854559     1.01100
C354        C  0.42874550  0.87800275  0.27911469     1.07000
O355        O  0.05085183  0.91707966  0.28602123    -0.75600
C356        C  0.06877677  0.79360023  0.36156600     1.05300
Fe357      Fe  0.50004221  0.62787427  0.12474516     1.65800
Fe358      Fe  0.06117750  0.62703880  0.06345525     1.73200
Fe359      Fe  0.43776897  0.62712321  0.06390145     1.54400
O360        O  0.40753836  0.57537028  0.08898266    -0.79300
O361        O  0.03982664  0.68131131  0.03727550    -0.77700
O362        O  0.45012266  0.57320204  0.12776585    -0.81900
O363        O  0.44699218  0.67953436  0.12757263    -0.76700
O364        O  0.45868925  0.57219883  0.03804173    -0.78500
O365        O  0.09203902  0.67933802  0.08786097    -0.81200
C366        C  0.41522857  0.69645190  0.11165448     0.99500
C367        C  0.41625144  0.55838744  0.11260402     1.07000
O368        O  0.49965734  0.62736063  0.08404462    -1.10200
O369        O  0.09032590  0.57292138  0.08709855    -0.72600
O370        O  0.05310228  0.57623454  0.12762568    -0.76100
O371        O  0.40882797  0.68172398  0.08733729    -0.76800
C372        C  0.08435439  0.55875883  0.11156890     0.98400
O373        O  0.04999756  0.68261493  0.12684359    -0.74800
O374        O  0.03879488  0.57445050  0.03637923    -0.80000
C375        C  0.49967183  0.69637913  0.02855480     1.01100
C376        C  0.49869603  0.55694579  0.02917369     1.07000
O377        O  0.45967200  0.67910439  0.03620144    -0.75600
C378        C  0.08368786  0.69696865  0.11135924     1.05300
Fe379      Fe  0.25006634  0.87782036  0.12806449     1.65800
Fe380      Fe  0.24892590  0.93904168  0.18924510     1.73200
Fe381      Fe  0.24903224  0.81561647  0.18900140     1.54400
O382        O  0.19737427  0.78532342  0.16393219    -0.79300
O383        O  0.30309071  0.91775684  0.21544828    -0.77700
O384        O  0.19540130  0.82790040  0.12509136    -0.81900
O385        O  0.30171435  0.82475094  0.12533771    -0.76700
O386        O  0.19401279  0.83659869  0.21482315    -0.78500
O387        O  0.30129268  0.96986488  0.16483096    -0.81200
C388        C  0.31856887  0.79300819  0.14130755     0.99500
C389        C  0.18052340  0.79400986  0.14027908     1.07000
O390        O  0.24934557  0.87748152  0.16876062    -1.10200
O391        O  0.19489955  0.96813708  0.16555389    -0.72600
O392        O  0.19846306  0.93090921  0.12507490    -0.76100
O393        O  0.30373566  0.78663151  0.16563006    -0.76800
C394        C  0.18088365  0.96216010  0.14108119     0.98400
O395        O  0.30485585  0.92773412  0.12593538    -0.74800
O396        O  0.19629623  0.91671302  0.21633725    -0.80000
C397        C  0.31817160  0.87763357  0.22423012     1.01100
C398        C  0.17876653  0.87664333  0.22361706     1.07000
O399        O  0.30093222  0.83759730  0.21666992    -0.75600
C400        C  0.31910374  0.96144298  0.14138303     1.05300
C401        C  0.14362673  0.76289391  0.12990422    -0.10900
C402        C  0.11496174  0.73413522  0.12125617    -0.12500
C403        C  0.35535885  0.76171619  0.13100051    -0.10900
C404        C  0.38392934  0.73318638  0.12201294    -0.12500
C405        C  0.38518134  0.52139379  0.12295216    -0.10900
C406        C  0.35636826  0.99266967  0.13152063    -0.12500
C407        C  0.11555219  0.52196366  0.12187778    -0.10900
C408        C  0.14413913  0.99335207  0.13071571    -0.12500
C409        C  0.10689528  0.87697421  0.25907630    -0.10900
C410        C  0.13964611  0.87670524  0.24284349    -0.12500
C411        C  0.38964667  0.87785411  0.25989849    -0.10900
C412        C  0.35689872  0.87759274  0.24368720    -0.12500
C413        C  0.10596960  0.76238223  0.37150925    -0.10900
C414        C  0.13474026  0.73364623  0.38009512    -0.12500
C415        C  0.39379248  0.76172197  0.37212874    -0.10900
C416        C  0.36518474  0.73307431  0.38092428    -0.12500
C417        C  0.36445596  0.52084145  0.38119445    -0.10900
C418        C  0.39317003  0.99209022  0.37258016    -0.12500
C419        C  0.13351743  0.52189664  0.38065625    -0.10900
C420        C  0.10496549  0.99340016  0.37163674    -0.12500
C421        C  0.24940238  0.51950805  0.49363664    -0.10900
C422        C  0.24961984  0.98678828  0.50991140    -0.12500
C423        C  0.24850392  0.73677060  0.49277038    -0.10900
C424        C  0.24869777  0.76954184  0.50895039    -0.12500
C425        C  0.13374486  0.76946800  0.62102725    -0.10900
C426        C  0.10502658  0.74063520  0.62959125    -0.12500
C427        C  0.36480227  0.77038182  0.62139807    -0.10900
C428        C  0.39330829  0.74176788  0.63037905    -0.12500
C429        C  0.39233796  0.51080081  0.63161681    -0.10900
C430        C  0.36356709  0.98215589  0.62296734    -0.12500
C431        C  0.13320823  0.98164073  0.62229454    -0.10900
C432        C  0.10457333  0.51018038  0.63114504    -0.12500
C433        C  0.14130904  0.62780771  0.75893210    -0.10900
C434        C  0.10855549  0.62772255  0.74272445    -0.12500
C435        C  0.35856979  0.62687846  0.75995596    -0.10900
C436        C  0.39128676  0.62679795  0.74368134    -0.12500
C437        C  0.49862377  0.51784688  0.00995102    -0.10900
C438        C  0.49858330  0.98511546  0.99372635    -0.12500
C439        C  0.49950667  0.73511191  0.00905474    -0.10900
C440        C  0.49949073  0.76785014  0.99279656    -0.12500
C441        C  0.14137062  0.74349216  0.87084270    -0.10900
C442        C  0.11255240  0.77214249  0.87946890    -0.12500
C443        C  0.35352208  0.74397466  0.87204113    -0.10900
C444        C  0.38207061  0.77254861  0.88092895    -0.12500
C445        C  0.35400053  0.51359853  0.87324796    -0.10900
C446        C  0.38266603  0.98477864  0.88185456    -0.12500
C447        C  0.11361988  0.98385589  0.88069871    -0.10900
C448        C  0.14221690  0.51242705  0.87174795    -0.12500
Fe449      Fe  0.49753196  0.37853001  0.87802434     1.65800
Fe450      Fe  0.93667797  0.37722559  0.93940947     1.73200
Fe451      Fe  0.56008944  0.37735619  0.93876642     1.54400
O452        O  0.59022683  0.32576462  0.91358236    -0.79300
O453        O  0.95814143  0.43134749  0.96559915    -0.77700
O454        O  0.54749415  0.32391622  0.87484828    -0.81900
O455        O  0.55052995  0.43024714  0.87516345    -0.76700
O456        O  0.53930394  0.32228729  0.96463467    -0.78500
O457        O  0.90568947  0.42967995  0.91511973    -0.81200
C458        C  0.58237086  0.44703763  0.89105033     0.99500
C459        C  0.58145308  0.30899653  0.88993684     1.07000
O460        O  0.99810533  0.37770584  0.91872297    -1.10200
O461        O  0.90742524  0.32325255  0.91575108    -0.72600
O462        O  0.94447948  0.32688741  0.87517566    -0.76100
O463        O  0.58890418  0.43210665  0.91533358    -0.76800
C464        C  0.91329508  0.30927883  0.89125324     0.98400
O465        O  0.94755189  0.43326830  0.87608036    -0.74800
O466        O  0.95920251  0.32449116  0.96640560    -0.80000
C467        C  0.99833477  0.44641640  0.97424559     1.01100
C468        C  0.99933912  0.30698589  0.97355711     1.07000
O469        O  0.53830291  0.42919161  0.96652657    -0.75600
C470        C  0.91394837  0.44750733  0.89163925     1.05300
Fe471      Fe  0.74750837  0.12851075  0.87468367     1.65800
Fe472      Fe  0.74910065  0.18956598  0.81335595     1.73200
Fe473      Fe  0.74896620  0.06614753  0.81388471     1.54400
O474        O  0.80049411  0.03598196  0.83909424    -0.79300
O475        O  0.69504731  0.16818668  0.78709784    -0.77700
O476        O  0.80210015  0.07853202  0.87789135    -0.81900
O477        O  0.69577122  0.07551820  0.87740840    -0.76700
O478        O  0.80409294  0.08701499  0.78807987    -0.78500
O479        O  0.69657942  0.22052638  0.83761748    -0.81200
C480        C  0.67908528  0.04369736  0.86147712     0.99500
C481        C  0.81713812  0.04467422  0.86277717     1.07000
O482        O  0.74852469  0.12806898  0.83398528    -1.10200
O483        O  0.80300522  0.21869748  0.83711317    -0.72600
O484        O  0.79913890  0.18155770  0.87766697    -0.76100
O485        O  0.69416105  0.03720863  0.83722443    -0.76800
C486        C  0.81684259  0.21277185  0.86163703     0.98400
O487        O  0.69277204  0.17849529  0.87659823    -0.74800
O488        O  0.80191653  0.16712065  0.78638049    -0.80000
C489        C  0.67999587  0.12801388  0.77841333     1.01100
C490        C  0.81942284  0.12700193  0.77919746     1.07000
O491        O  0.69720814  0.08801819  0.78610480    -0.75600
C492        C  0.67863966  0.21219267  0.86106227     1.05300
Fe493      Fe  0.74870558  0.37563021  0.62463915     1.65800
Fe494      Fe  0.68735449  0.37732367  0.56349444     1.73200
Fe495      Fe  0.81077207  0.37719710  0.56367135     1.54400
O496        O  0.84107546  0.42869288  0.58882686    -0.79300
O497        O  0.70856392  0.32327517  0.53721655    -0.77700
O498        O  0.79863821  0.43026964  0.62771647    -0.81900
O499        O  0.80176623  0.32395359  0.62720898    -0.76700
O500        O  0.78974639  0.43237502  0.53793796    -0.78500
O501        O  0.65650285  0.32483614  0.58783791    -0.81200
C502        C  0.83349780  0.30726188  0.61119075     0.99500
C503        C  0.83245688  0.44531639  0.61253394     1.07000
O504        O  0.74895605  0.37672073  0.58394478    -1.10200
O505        O  0.65839655  0.43123564  0.58730359    -0.72600
O506        O  0.69560925  0.42720223  0.62778640    -0.76100
O507        O  0.83984940  0.32233641  0.58691288    -0.76800
C508        C  0.66437887  0.44498154  0.61182535     0.98400
O509        O  0.69880629  0.32081437  0.62666373    -0.74800
O510        O  0.70964230  0.43008902  0.53644297    -0.80000
C511        C  0.74867265  0.30823989  0.52840209     1.01100
C512        C  0.74969544  0.44764646  0.52915581     1.07000
O513        O  0.78872322  0.32546853  0.53594255    -0.75600
C514        C  0.66499825  0.30677439  0.61122231     1.05300
Fe515      Fe  0.49865723  0.12564522  0.62796267     1.65800
Fe516      Fe  0.49935549  0.06483453  0.68938265     1.73200
Fe517      Fe  0.49923945  0.18824563  0.68867542     1.54400
O518        O  0.55097482  0.21840461  0.66354906    -0.79300
O519        O  0.94506283  0.08632044  0.71551241    -0.77700
O520        O  0.55333633  0.17555473  0.62487831    -0.81900
O521        O  0.94700602  0.17869263  0.62497336    -0.76700
O522        O  0.55417218  0.16749258  0.71457588    -0.78500
O523        O  0.94707739  0.03385999  0.66501295    -0.81200
C524        C  0.93000823  0.21050227  0.64082535     0.99500
C525        C  0.56804905  0.20956120  0.63997044     1.07000
O526        O  0.49906469  0.12624473  0.66866279    -1.10200
O527        O  0.55349864  0.03553005  0.66583143    -0.72600
O528        O  0.55030544  0.07258120  0.62524161    -0.76100
O529        O  0.94463381  0.21699165  0.66515669    -0.76800
C530        C  0.56773637  0.04139988  0.64136896     0.98400
O531        O  0.94392983  0.07567018  0.62593082    -0.74800
O532        O  0.55192341  0.08738712  0.71641814    -0.80000
C533        C  0.92999925  0.12652245  0.72415972     1.01100
C534        C  0.56943246  0.12753568  0.72352550     1.07000
O535        O  0.94726961  0.16647858  0.71642428    -0.75600
C536        C  0.92951242  0.04208801  0.64147888     1.05300
Fe537      Fe  0.74963461  0.12723359  0.37799093     1.65800
Fe538      Fe  0.81086178  0.12767523  0.43918990     1.73200
Fe539      Fe  0.68744858  0.12758535  0.43891802     1.54400
O540        O  0.65710978  0.17942640  0.41394056    -0.79300
O541        O  0.78957339  0.07333424  0.46534206    -0.77700
O542        O  0.69975750  0.18195974  0.37514975    -0.81900
O543        O  0.69653022  0.07563791  0.37513058    -0.76700
O544        O  0.70842442  0.18244052  0.46478541    -0.78500
O545        O  0.84161963  0.07548097  0.41467752    -0.81200
C546        C  0.66483192  0.05855646  0.39106560     0.99500
C547        C  0.66583922  0.19661345  0.39035847     1.07000
O548        O  0.74930664  0.12747429  0.41868945    -1.10200
O549        O  0.84001323  0.18187468  0.41560522    -0.72600
O550        O  0.80271060  0.17886642  0.37513448    -0.76100
O551        O  0.65851621  0.07305494  0.41544345    -0.76800
C552        C  0.83399708  0.19621578  0.39118261     0.98400
O553        O  0.79955645  0.07246955  0.37573080    -0.74800
O554        O  0.78854009  0.18014468  0.46632799    -0.80000
C555        C  0.74945398  0.05824244  0.47412867     1.01100
C556        C  0.74846557  0.19766091  0.47358545     1.07000
O557        O  0.70942691  0.07551334  0.46655167    -0.75600
C558        C  0.83323121  0.05799325  0.39116038     1.05300
Fe559      Fe  0.99968025  0.37728821  0.37468979     1.65800
Fe560      Fe  0.99881600  0.31577892  0.31360773     1.73200
Fe561      Fe  0.99888963  0.43919915  0.31365307     1.54400
O562        O  0.94715528  0.46960907  0.33865433    -0.79300
O563        O  0.55310060  0.33692919  0.28741304    -0.77700
O564        O  0.94495662  0.42715955  0.37753779    -0.81900
O565        O  0.55126761  0.43041963  0.37735698    -0.76700
O566        O  0.94393371  0.41808847  0.28786733    -0.78500
O567        O  0.55105426  0.28506011  0.33812393    -0.81200
C568        C  0.56822013  0.46206667  0.36134307     0.98700
C569        C  0.93015668  0.46098304  0.36229255     1.07000
O570        O  0.99914151  0.37743377  0.33399341    -1.10200
O571        O  0.94467570  0.28682468  0.33729703    -0.72600
O572        O  0.94810361  0.32417406  0.37773932    -0.76100
O573        O  0.55352840  0.46829903  0.33699179    -0.76800
C574        C  0.93057509  0.29288181  0.36175742     0.98400
O575        O  0.55449656  0.32741991  0.37693923    -0.74800
O576        O  0.94630420  0.33797381  0.28643636    -0.80000
C577        C  0.56815022  0.37701254  0.27854556     1.01100
C578        C  0.92874546  0.37800267  0.27911466     1.07000
O579        O  0.55085175  0.41707954  0.28602121    -0.75600
C580        C  0.56877685  0.29360038  0.36156603     1.05300
Fe581      Fe  0.00004221  0.12787421  0.12474514     1.65800
Fe582      Fe  0.56117752  0.12703887  0.06345530     1.73200
Fe583      Fe  0.93776901  0.12712316  0.06390143     1.54400
O584        O  0.90753842  0.07537017  0.08898265    -0.79300
O585        O  0.53982667  0.18131136  0.03727552    -0.77700
O586        O  0.95012263  0.07320187  0.12776585    -0.81900
O587        O  0.94699216  0.17953440  0.12757265    -0.76700
O588        O  0.95868922  0.07219877  0.03804169    -0.78500
O589        O  0.59203887  0.17933817  0.08786095    -0.81200
C590        C  0.91522849  0.19645171  0.11165449     0.99500
C591        C  0.91625139  0.05838740  0.11260403     1.07000
O592        O  0.99965736  0.12736066  0.08404461    -1.10200
O593        O  0.59032599  0.07292153  0.08709860    -0.72600
O594        O  0.55310216  0.07623448  0.12762568    -0.76100
O595        O  0.90882791  0.18172389  0.08733732    -0.76800
C596        C  0.58435446  0.05875880  0.11156892     0.98400
O597        O  0.54999757  0.18261478  0.12684363    -0.74800
O598        O  0.53879492  0.07445056  0.03637922    -0.80000
C599        C  0.99967190  0.19637906  0.02855479     1.01100
C600        C  0.99869603  0.05694576  0.02917369     1.07000
O601        O  0.95967198  0.17910440  0.03620147    -0.75600
C602        C  0.58368770  0.19696875  0.11135923     1.05300
Fe603      Fe  0.75006646  0.37782040  0.12806449     1.65800
Fe604      Fe  0.74892602  0.43904179  0.18924511     1.73200
Fe605      Fe  0.74903217  0.31561655  0.18900138     1.54400
O606        O  0.69737422  0.28532342  0.16393217    -0.79300
O607        O  0.80309081  0.41775683  0.21544831    -0.77700
O608        O  0.69540145  0.32790043  0.12509136    -0.81900
O609        O  0.80171459  0.32475097  0.12533769    -0.76700
O610        O  0.69401272  0.33659874  0.21482312    -0.78500
O611        O  0.80129292  0.46986489  0.16483099    -0.81200
C612        C  0.81856892  0.29300829  0.14130756     0.99500
C613        C  0.68052341  0.29400981  0.14027906     1.07000
O614        O  0.74934568  0.37748164  0.16876063    -1.10200
O615        O  0.69489969  0.46813723  0.16555385    -0.72600
O616        O  0.69846307  0.43090921  0.12507489    -0.76100
O617        O  0.80373559  0.28663146  0.16563001    -0.76800
C618        C  0.68088371  0.46215995  0.14108119     0.98400
O619        O  0.80485592  0.42773427  0.12593534    -0.74800
O620        O  0.69629628  0.41671305  0.21633724    -0.80000
C621        C  0.81817163  0.37763366  0.22423014     1.01100
C622        C  0.67876648  0.37664331  0.22361704     1.07000
O623        O  0.80093213  0.33759728  0.21666993    -0.75600
C624        C  0.81910389  0.46144308  0.14138304     1.05300
C625        C  0.64362659  0.26289403  0.12990419    -0.10900
C626        C  0.61496163  0.23413526  0.12125620    -0.12500
C627        C  0.85535909  0.26171615  0.13100050    -0.10900
C628        C  0.88392930  0.23318650  0.12201294    -0.12500
C629        C  0.88518121  0.02139357  0.12295221    -0.10900
C630        C  0.85636838  0.49266985  0.13152060    -0.12500
C631        C  0.61555213  0.02196382  0.12187773    -0.10900
C632        C  0.64413893  0.49335197  0.13071574    -0.12500
C633        C  0.60689525  0.37697433  0.25907624    -0.10900
C634        C  0.63964608  0.37670527  0.24284342    -0.12500
C635        C  0.88964673  0.37785396  0.25989851    -0.10900
C636        C  0.85689858  0.37759268  0.24368721    -0.12500
C637        C  0.60596959  0.26238242  0.37150934    -0.10900
C638        C  0.63474035  0.23364621  0.38009507    -0.12500
C639        C  0.89379255  0.26172201  0.37212875    -0.10900
C640        C  0.86518483  0.23307429  0.38092430    -0.12500
C641        C  0.86445607  0.02084139  0.38119452    -0.10900
C642        C  0.89316995  0.49209028  0.37258013    -0.12500
C643        C  0.63351760  0.02189670  0.38065628    -0.10900
C644        C  0.60496548  0.49340029  0.37163671    -0.12500
C645        C  0.74940230  0.01950816  0.49363667    -0.10900
C646        C  0.74961982  0.48678843  0.50991138    -0.12500
C647        C  0.74850377  0.23677061  0.49277031    -0.10900
C648        C  0.74869767  0.26954199  0.50895041    -0.12500
C649        C  0.63374478  0.26946822  0.62102722    -0.10900
C650        C  0.60502654  0.24063536  0.62959124    -0.12500
C651        C  0.86480238  0.27038182  0.62139801    -0.10900
C652        C  0.89330845  0.24176794  0.63037902    -0.12500
C653        C  0.89233780  0.01080073  0.63161670    -0.10900
C654        C  0.86356702  0.48215579  0.62296735    -0.12500
C655        C  0.63320823  0.48164048  0.62229456    -0.10900
C656        C  0.60457323  0.01018029  0.63114500    -0.12500
C657        C  0.64130900  0.12780774  0.75893210    -0.10900
C658        C  0.60855536  0.12772250  0.74272443    -0.12500
C659        C  0.85856981  0.12687842  0.75995600    -0.10900
C660        C  0.89128668  0.12679796  0.74368133    -0.12500
C661        C  0.99862373  0.01784683  0.00995103    -0.10900
C662        C  0.99858323  0.48511538  0.99372634    -0.12500
C663        C  0.99950657  0.23511178  0.00905474    -0.10900
C664        C  0.99949074  0.26785014  0.99279659    -0.12500
C665        C  0.64137069  0.24349205  0.87084269    -0.10900
C666        C  0.61255235  0.27214255  0.87946891    -0.12500
C667        C  0.85352204  0.24397450  0.87204109    -0.10900
C668        C  0.88207069  0.27254849  0.88092891    -0.12500
C669        C  0.85400062  0.01359861  0.87324798    -0.10900
C670        C  0.88266590  0.48477878  0.88185458    -0.12500
C671        C  0.61361993  0.48385592  0.88069873    -0.10900
C672        C  0.64221686  0.01242703  0.87174797    -0.12500
Fe673      Fe  0.49753197  0.87852998  0.87802432     1.65800
Fe674      Fe  0.93667802  0.87722566  0.93940947     1.73200
Fe675      Fe  0.56008941  0.87735628  0.93876650     1.54400
O676        O  0.59022685  0.82576483  0.91358236    -0.79300
O677        O  0.95814144  0.93134756  0.96559915    -0.77700
O678        O  0.54749415  0.82391614  0.87484829    -0.81900
O679        O  0.55053000  0.93024702  0.87516344    -0.76700
O680        O  0.53930398  0.82228734  0.96463473    -0.78500
O681        O  0.90568948  0.92968003  0.91511973    -0.81200
C682        C  0.58237075  0.94703759  0.89105035     0.99500
C683        C  0.58145313  0.80899667  0.88993684     1.07000
O684        O  0.99810530  0.87770597  0.91872296    -1.10200
O685        O  0.90742529  0.82325261  0.91575109    -0.72600
O686        O  0.94447947  0.82688739  0.87517566    -0.76100
O687        O  0.58890414  0.93210676  0.91533361    -0.76800
C688        C  0.91329496  0.80927900  0.89125325     0.98400
O689        O  0.94755190  0.93326834  0.87608034    -0.74800
O690        O  0.95920250  0.82449134  0.96640562    -0.80000
C691        C  0.99833468  0.94641649  0.97424558     1.01100
C692        C  0.99933901  0.80698596  0.97355712     1.07000
O693        O  0.53830294  0.92919169  0.96652663    -0.75600
C694        C  0.91394827  0.94750731  0.89163921     1.05300
Fe695      Fe  0.74750841  0.62851077  0.87468366     1.65800
Fe696      Fe  0.74910071  0.68956600  0.81335597     1.73200
Fe697      Fe  0.74896624  0.56614757  0.81388473     1.54400
O698        O  0.80049405  0.53598210  0.83909423    -0.79300
O699        O  0.69504736  0.66818669  0.78709785    -0.77700
O700        O  0.80210020  0.57853214  0.87789134    -0.81900
O701        O  0.69577120  0.57551825  0.87740843    -0.76700
O702        O  0.80409306  0.58701502  0.78807987    -0.78500
O703        O  0.69657948  0.72052649  0.83761746    -0.81200
C704        C  0.67908518  0.54369743  0.86147711     0.99500
C705        C  0.81713809  0.54467438  0.86277714     1.07000
O706        O  0.74852472  0.62806900  0.83398529    -1.10200
O707        O  0.80300523  0.71869767  0.83711317    -0.72600
O708        O  0.79913891  0.68155778  0.87766694    -0.76100
O709        O  0.69416101  0.53720879  0.83722443    -0.76800
C710        C  0.81684247  0.71277209  0.86163704     0.98400
O711        O  0.69277217  0.67849537  0.87659820    -0.74800
O712        O  0.80191666  0.66712069  0.78638053    -0.80000
C713        C  0.67999604  0.62801374  0.77841333     1.01100
C714        C  0.81942287  0.62700187  0.77919741     1.07000
O715        O  0.69720819  0.58801823  0.78610481    -0.75600
C716        C  0.67863974  0.71219265  0.86106224     1.05300
Fe717      Fe  0.74870550  0.87563026  0.62463910     1.65800
Fe718      Fe  0.68735449  0.87732358  0.56349446     1.73200
Fe719      Fe  0.81077204  0.87719702  0.56367134     1.54400
O720        O  0.84107539  0.92869273  0.58882687    -0.79300
O721        O  0.70856391  0.82327505  0.53721663    -0.77700
O722        O  0.79863816  0.93026971  0.62771646    -0.81900
O723        O  0.80176601  0.82395355  0.62720895    -0.76700
O724        O  0.78974633  0.93237493  0.53793798    -0.78500
O725        O  0.65650274  0.82483607  0.58783790    -0.81200
C726        C  0.83349775  0.80726184  0.61119077     0.99500
C727        C  0.83245671  0.94531622  0.61253393     1.07000
O728        O  0.74895606  0.87672062  0.58394476    -1.10200
O729        O  0.65839636  0.93123554  0.58730359    -0.72600
O730        O  0.69560912  0.92720228  0.62778637    -0.76100
O731        O  0.83984932  0.82233636  0.58691289    -0.76800
C732        C  0.66437881  0.94498145  0.61182529     0.98400
O733        O  0.69880612  0.82081450  0.62666372    -0.74800
O734        O  0.70964225  0.93008895  0.53644296    -0.80000
C735        C  0.74867267  0.80823985  0.52840215     1.01100
C736        C  0.74969540  0.94764637  0.52915575     1.07000
O737        O  0.78872321  0.82546846  0.53594258    -0.75600
C738        C  0.66499812  0.80677436  0.61122230     1.05300
Fe739      Fe  0.49865713  0.62564513  0.62796268     1.65800
Fe740      Fe  0.49935546  0.56483462  0.68938262     1.73200
Fe741      Fe  0.49923950  0.68824570  0.68867546     1.54400
O742        O  0.55097491  0.71840467  0.66354906    -0.79300
O743        O  0.94506293  0.58632050  0.71551247    -0.77700
O744        O  0.55333614  0.67555464  0.62487832    -0.81900
O745        O  0.94700594  0.67869254  0.62497338    -0.76700
O746        O  0.55417223  0.66749260  0.71457586    -0.78500
O747        O  0.94707728  0.53386001  0.66501301    -0.81200
C748        C  0.93000828  0.71050242  0.64082536     0.99500
C749        C  0.56804897  0.70956120  0.63997045     1.07000
O750        O  0.49906477  0.62624485  0.66866278    -1.10200
O751        O  0.55349864  0.53553009  0.66583143    -0.72600
O752        O  0.55030535  0.57258112  0.62524157    -0.76100
O753        O  0.94463392  0.71699178  0.66515666    -0.76800
C754        C  0.56773649  0.54139984  0.64136895     0.98400
O755        O  0.94392996  0.57567012  0.62593082    -0.74800
O756        O  0.55192348  0.58738718  0.71641809    -0.80000
C757        C  0.92999927  0.62652232  0.72415977     1.01100
C758        C  0.56943247  0.62753564  0.72352544     1.07000
O759        O  0.94726958  0.66647863  0.71642429    -0.75600
C760        C  0.92951231  0.54208784  0.64147894     1.05300
Fe761      Fe  0.74963451  0.62723353  0.37799093     1.65800
Fe762      Fe  0.81086173  0.62767509  0.43918989     1.73200
Fe763      Fe  0.68744857  0.62758527  0.43891801     1.54400
O764        O  0.65710980  0.67942632  0.41394060    -0.79300
O765        O  0.78957342  0.57333422  0.46534210    -0.77700
O766        O  0.69975730  0.68195967  0.37514971    -0.81900
O767        O  0.69653016  0.57563779  0.37513057    -0.76700
O768        O  0.70842452  0.68244037  0.46478540    -0.78500
O769        O  0.84161952  0.57548087  0.41467754    -0.81200
C770        C  0.66483184  0.55855648  0.39106558     0.99500
C771        C  0.66583911  0.69661340  0.39035850     1.07000
O772        O  0.74930659  0.62747425  0.41868946    -1.10200
O773        O  0.84001321  0.68187442  0.41560517    -0.72600
O774        O  0.80271045  0.67886643  0.37513451    -0.76100
O775        O  0.65851620  0.57305483  0.41544346    -0.76800
C776        C  0.83399687  0.69621563  0.39118261     0.98400
O777        O  0.79955642  0.57246947  0.37573077    -0.74800
O778        O  0.78854015  0.68014459  0.46632795    -0.80000
C779        C  0.74945416  0.55824247  0.47412867     1.01100
C780        C  0.74846567  0.69766078  0.47358542     1.07000
O781        O  0.70942692  0.57551330  0.46655164    -0.75600
C782        C  0.83323107  0.55799317  0.39116034     1.05300
Fe783      Fe  0.99968023  0.87728819  0.37468979     1.65800
Fe784      Fe  0.99881599  0.81577903  0.31360773     1.73200
Fe785      Fe  0.99888966  0.93919926  0.31365308     1.54400
O786        O  0.94715532  0.96960906  0.33865432    -0.79300
O787        O  0.55310044  0.83692932  0.28741304    -0.77700
O788        O  0.94495658  0.92715944  0.37753776    -0.81900
O789        O  0.55126774  0.93041946  0.37735697    -0.76700
O790        O  0.94393378  0.91808862  0.28786731    -0.78500
O791        O  0.55105417  0.78506015  0.33812390    -0.81200
C792        C  0.56822022  0.96206668  0.36134312     0.98700
C793        C  0.93015674  0.96098305  0.36229254     1.07000
O794        O  0.99914146  0.87743387  0.33399341    -1.10200
O795        O  0.94467568  0.78682472  0.33729701    -0.72600
O796        O  0.94810363  0.82417391  0.37773935    -0.76100
O797        O  0.55352841  0.96829899  0.33699182    -0.76800
C798        C  0.93057516  0.79288186  0.36175741     0.98400
O799        O  0.55449652  0.82741976  0.37693926    -0.74800
O800        O  0.94630408  0.83797391  0.28643638    -0.80000
C801        C  0.56815018  0.87701253  0.27854559     1.01100
C802        C  0.92874545  0.87800275  0.27911465     1.07000
O803        O  0.55085184  0.91707966  0.28602122    -0.75600
C804        C  0.56877675  0.79360021  0.36156600     1.05300
Fe805      Fe  0.00004221  0.62787425  0.12474514     1.65800
Fe806      Fe  0.56117749  0.62703881  0.06345525     1.73200
Fe807      Fe  0.93776897  0.62712322  0.06390146     1.54400
O808        O  0.90753834  0.57537026  0.08898267    -0.79300
O809        O  0.53982665  0.68131130  0.03727549    -0.77700
O810        O  0.95012270  0.57320201  0.12776584    -0.81900
O811        O  0.94699222  0.67953439  0.12757263    -0.76700
O812        O  0.95868919  0.57219883  0.03804173    -0.78500
O813        O  0.59203898  0.67933803  0.08786097    -0.81200
C814        C  0.91522846  0.69645190  0.11165447     0.99500
C815        C  0.91625132  0.55838744  0.11260401     1.07000
O816        O  0.99965737  0.62736062  0.08404462    -1.10200
O817        O  0.59032588  0.57292139  0.08709857    -0.72600
O818        O  0.55310224  0.57623455  0.12762569    -0.76100
O819        O  0.90882798  0.68172402  0.08733730    -0.76800
C820        C  0.58435436  0.55875883  0.11156891     0.98400
O821        O  0.54999755  0.68261495  0.12684361    -0.74800
O822        O  0.53879493  0.57445051  0.03637923    -0.80000
C823        C  0.99967182  0.69637913  0.02855481     1.01100
C824        C  0.99869590  0.55694578  0.02917368     1.07000
O825        O  0.95967199  0.67910438  0.03620144    -0.75600
C826        C  0.58368781  0.69696859  0.11135923     1.05300
Fe827      Fe  0.75006635  0.87782038  0.12806449     1.65800
Fe828      Fe  0.74892590  0.93904170  0.18924510     1.73200
Fe829      Fe  0.74903224  0.81561648  0.18900140     1.54400
O830        O  0.69737427  0.78532341  0.16393219    -0.79300
O831        O  0.80309069  0.91775683  0.21544830    -0.77700
O832        O  0.69540131  0.82790037  0.12509136    -0.81900
O833        O  0.80171434  0.82475095  0.12533771    -0.76700
O834        O  0.69401278  0.83659871  0.21482316    -0.78500
O835        O  0.80129273  0.96986483  0.16483098    -0.81200
C836        C  0.81856888  0.79300814  0.14130754     0.99500
C837        C  0.68052345  0.79400985  0.14027908     1.07000
O838        O  0.74934557  0.87748154  0.16876062    -1.10200
O839        O  0.69489956  0.96813718  0.16555387    -0.72600
O840        O  0.69846300  0.93090918  0.12507490    -0.76100
O841        O  0.80373563  0.78663150  0.16563006    -0.76800
C842        C  0.68088368  0.96216015  0.14108118     0.98400
O843        O  0.80485586  0.92773423  0.12593535    -0.74800
O844        O  0.69629619  0.91671304  0.21633722    -0.80000
C845        C  0.81817164  0.87763355  0.22423013     1.01100
C846        C  0.67876649  0.87664336  0.22361705     1.07000
O847        O  0.80093222  0.83759727  0.21666991    -0.75600
C848        C  0.81910370  0.96144288  0.14138307     1.05300
C849        C  0.64362663  0.76289385  0.12990420    -0.10900
C850        C  0.61496181  0.73413519  0.12125617    -0.12500
C851        C  0.85535881  0.76171623  0.13100052    -0.10900
C852        C  0.88392937  0.73318639  0.12201294    -0.12500
C853        C  0.88518137  0.52139378  0.12295216    -0.10900
C854        C  0.85636840  0.99266975  0.13152064    -0.12500
C855        C  0.61555215  0.52196365  0.12187778    -0.10900
C856        C  0.64413913  0.99335210  0.13071571    -0.12500
C857        C  0.60689527  0.87697421  0.25907629    -0.10900
C858        C  0.63964609  0.87670526  0.24284347    -0.12500
C859        C  0.88964676  0.87785412  0.25989848    -0.10900
C860        C  0.85689861  0.87759273  0.24368717    -0.12500
C861        C  0.60596958  0.76238221  0.37150926    -0.10900
C862        C  0.63474023  0.73364621  0.38009512    -0.12500
C863        C  0.89379243  0.76172189  0.37212878    -0.10900
C864        C  0.86518485  0.73307433  0.38092428    -0.12500
C865        C  0.86445603  0.52084154  0.38119446    -0.10900
C866        C  0.89317002  0.99209018  0.37258016    -0.12500
C867        C  0.63351743  0.52189670  0.38065625    -0.10900
C868        C  0.60496549  0.99340020  0.37163675    -0.12500
C869        C  0.74940243  0.51950806  0.49363663    -0.10900
C870        C  0.74961991  0.98678828  0.50991140    -0.12500
C871        C  0.74850389  0.73677063  0.49277030    -0.10900
C872        C  0.74869773  0.76954192  0.50895042    -0.12500
C873        C  0.63374483  0.76946802  0.62102725    -0.10900
C874        C  0.60502657  0.74063512  0.62959123    -0.12500
C875        C  0.86480225  0.77038186  0.62139806    -0.10900
C876        C  0.89330835  0.74176784  0.63037902    -0.12500
C877        C  0.89233796  0.51080088  0.63161679    -0.10900
C878        C  0.86356706  0.98215590  0.62296734    -0.12500
C879        C  0.63320820  0.98164071  0.62229454    -0.10900
C880        C  0.60457327  0.51018042  0.63114500    -0.12500
C881        C  0.64130902  0.62780772  0.75893211    -0.10900
C882        C  0.60855547  0.62772255  0.74272446    -0.12500
C883        C  0.85856988  0.62687844  0.75995603    -0.10900
C884        C  0.89128679  0.62679791  0.74368135    -0.12500
C885        C  0.99862369  0.51784689  0.00995103    -0.10900
C886        C  0.99858329  0.98511547  0.99372636    -0.12500
C887        C  0.99950666  0.73511191  0.00905474    -0.10900
C888        C  0.99949072  0.76785014  0.99279656    -0.12500
C889        C  0.64137070  0.74349209  0.87084269    -0.10900
C890        C  0.61255247  0.77214259  0.87946894    -0.12500
C891        C  0.85352203  0.74397462  0.87204112    -0.10900
C892        C  0.88207063  0.77254859  0.88092896    -0.12500
C893        C  0.85400061  0.51359855  0.87324796    -0.10900
C894        C  0.88266600  0.98477864  0.88185456    -0.12500
C895        C  0.61361992  0.98385589  0.88069870    -0.10900
C896        C  0.64221692  0.51242707  0.87174794    -0.12500
loop_ 
_geom_bond_atom_site_label_1 
_geom_bond_atom_site_label_2 
_geom_bond_distance 
_geom_bond_site_symmetry_2 
_ccdc_geom_bond_type 
Fe1           O7   2.064   1_655  S
Fe1           O6   2.065   1_655  S
Fe1         O465   2.064       .  S
Fe1         O462   2.064       .  S
Fe1         O460   1.983       .  S
Fe2           O5   2.063       .  S
Fe2           O9   2.066       .  S
Fe2          O13   2.062       .  S
Fe2          O18   2.067       .  S
Fe2          O12   1.983       .  S
Fe3          O21   2.069       .  S
Fe3           O8   2.065       .  S
Fe3          O15   2.064       .  S
Fe3           O4   2.066       .  S
Fe3         O460   1.982   1_455  S
O4           C11   1.267       .  A
O5           C19   1.267       .  A
O6           C11   1.267       .  A
O7           C10   1.266       .  A
O8          C468   1.267   1_455  A
O9           C22   1.267       .  A
C10          O15   1.267       .  A
C10         C223   1.434       .  S
C11         C218   1.435       .  S
O12        Fe449   1.983       .  S
O12        Fe451   1.982       .  S
O13          C16   1.266       .  A
O14        Fe449   2.064       .  S
O14          C16   1.266       .  A
C16         C220   1.433       .  S
O17        Fe449   2.064       .  S
O17          C22   1.267       .  A
O18          C20   1.267       .  A
C19         O469   1.267       .  A
C19         C214   1.436       .  S
C20         O456   1.267       .  A
C20         C216   1.436       .  S
O21         C467   1.267   1_455  A
C22         C222   1.435       .  S
Fe23         O39   2.064       .  S
Fe23         O29   2.064       .  S
Fe23         O36   2.064       .  S
Fe23         O28   2.064       .  S
Fe23         O34   1.983       .  S
Fe24         O27   2.063       .  S
Fe24         O31   2.067       .  S
Fe24         O35   2.061       .  S
Fe24         O40   2.067       .  S
Fe24         O34   1.983       .  S
Fe25         O43   2.068       .  S
Fe25         O30   2.065       .  S
Fe25         O37   2.064       .  S
Fe25         O26   2.066       .  S
Fe25         O34   1.982       .  S
O26          C33   1.267       .  A
O27          C41   1.267       .  A
O28          C33   1.267       .  A
O29          C32   1.266       .  A
O30          C42   1.267       .  A
O31          C44   1.267       .  A
C32          O37   1.267       .  A
C32         C224   1.434       .  S
C33         C221   1.435       .  S
O35          C38   1.266       .  A
O36          C38   1.266       .  A
C38         C219   1.433       .  S
O39          C44   1.267       .  A
O40          C42   1.267       .  A
C41          O43   1.267       .  A
C41         C209   1.436       .  S
C42         C211   1.436       .  S
C44         C217   1.435       .  S
Fe45         O61   2.064       .  S
Fe45         O51   2.064       .  S
Fe45         O58   2.064       .  S
Fe45         O50   2.064       .  S
Fe45         O56   1.983       .  S
Fe46         O49   2.062       .  S
Fe46         O53   2.066       .  S
Fe46         O57   2.060       .  S
Fe46         O62   2.066       .  S
Fe46         O56   1.983       .  S
Fe47         O65   2.068       .  S
Fe47         O52   2.065       .  S
Fe47         O59   2.064       .  S
Fe47         O48   2.066       .  S
Fe47         O56   1.982       .  S
O48          C55   1.268       .  A
O49          C63   1.266       .  A
O50          C55   1.267       .  A
O51          C54   1.266       .  A
O52          C64   1.267       .  A
O53          C66   1.267       .  A
C54          O59   1.267       .  A
C54         C203   1.434       .  S
C55         C206   1.435       .  S
O57          C60   1.266       .  A
O58          C60   1.267       .  A
C60         C207   1.432       .  S
O61          C66   1.267       .  A
O62          C64   1.267       .  A
C63          O65   1.267       .  A
C63         C200   1.435       .  S
C64         C198   1.436       .  S
C66         C201   1.435       .  S
Fe67         O80   2.064   1_655  S
Fe67         O72   2.064   1_655  S
Fe67        O531   2.064       .  S
Fe67        O521   2.064       .  S
Fe67         O78   1.983       .  S
Fe68         O79   2.061   1_655  S
Fe68         O84   2.067   1_655  S
Fe68        O519   2.063       .  S
Fe68        O523   2.067       .  S
Fe68         O78   1.983       .  S
Fe69         O74   2.064   1_655  S
Fe69         O70   2.066   1_655  S
Fe69        O535   2.069       .  S
Fe69        O529   2.064       .  S
Fe69         O78   1.982       .  S
O70          C77   1.267       .  A
O71        Fe516   2.063       .  S
O71          C85   1.267       .  A
O72          C77   1.267       .  A
O73        Fe515   2.064       .  S
O73          C76   1.266       .  A
O74          C86   1.267       .  A
O75        Fe516   2.067       .  S
O75          C88   1.267       .  A
C76          O81   1.267       .  A
C76         C204   1.434       .  S
C77         C202   1.435       .  S
O79          C82   1.266       .  A
O80          C82   1.266       .  A
O81        Fe517   2.064       .  S
C82         C208   1.432       .  S
O83        Fe515   2.064       .  S
O83          C88   1.267       .  A
O84          C86   1.267       .  A
C85          O87   1.267       .  A
C85         C212   1.436       .  S
C86         C210   1.436       .  S
O87        Fe517   2.069       .  S
C88         C205   1.435       .  S
Fe89        O105   2.064       .  S
Fe89         O95   2.064       .  S
Fe89        O102   2.064       .  S
Fe89         O94   2.064       .  S
Fe89        O100   1.983       .  S
Fe90         O93   2.062       .  S
Fe90         O97   2.066       .  S
Fe90        O101   2.060       .  S
Fe90        O106   2.066       .  S
Fe90        O100   1.983       .  S
Fe91        O109   2.069       .  S
Fe91         O96   2.065       .  S
Fe91        O103   2.064       .  S
Fe91         O92   2.066       .  S
Fe91        O100   1.982       .  S
O92          C99   1.267       .  A
O93         C107   1.266       .  A
O94          C99   1.267       .  A
O95          C98   1.266       .  A
O96         C108   1.267       .  A
O97         C110   1.267       .  A
C98         O103   1.267       .  A
C98         C195   1.434       .  S
C99         C190   1.435       .  S
O101        C104   1.266       .  A
O102        C104   1.266       .  A
C104        C192   1.432       .  S
O105        C110   1.267       .  A
O106        C108   1.267       .  A
C107        O109   1.268       .  A
C107        C197   1.436       .  S
C108        C199   1.435       .  S
C110        C193   1.435       .  S
Fe111       O124   2.064       .  S
Fe111       O116   2.064       .  S
Fe111       O575   2.064       .  S
Fe111       O565   2.064       .  S
Fe111       O122   1.983       .  S
Fe112       O123   2.060       .  S
Fe112       O128   2.066       .  S
Fe112       O563   2.062       .  S
Fe112       O567   2.066       .  S
Fe112       O122   1.983       .  S
Fe113       O118   2.065       .  S
Fe113       O114   2.066       .  S
Fe113       O579   2.069       .  S
Fe113       O573   2.065       .  S
Fe113       O122   1.982       .  S
O114        C121   1.267       .  A
O115       Fe560   2.062   1_455  S
O115        C129   1.266       .  A
O116        C121   1.267       .  A
O117       Fe559   2.064   1_455  S
O117        C120   1.266       .  A
O118        C130   1.267       .  A
O119       Fe560   2.066   1_455  S
O119        C132   1.267       .  A
C120        O125   1.267       .  A
C120        C196   1.434       .  S
C121        C194   1.435       .  S
O123        C126   1.266       .  A
O124        C126   1.266       .  A
O125       Fe561   2.065   1_455  S
C126        C191   1.432       .  S
O127       Fe559   2.064   1_455  S
O127        C132   1.267       .  A
O128        C130   1.267       .  A
C129        O131   1.268       .  A
C129        C185   1.435       .  S
C130        C187   1.436       .  S
O131       Fe561   2.069   1_455  S
C132        C189   1.435       .  S
Fe133       O139   2.064       .  S
Fe133       O138   2.064       .  S
Fe133       O597   2.064       .  S
Fe133       O594   2.064       .  S
Fe133       O144   1.983       .  S
Fe134       O137   2.063       .  S
Fe134       O141   2.067       .  S
Fe134       O145   2.061       .  S
Fe134       O150   2.067       .  S
Fe134       O592   1.983   1_455  S
Fe135       O153   2.068       .  S
Fe135       O140   2.065       .  S
Fe135       O147   2.064       .  S
Fe135       O136   2.066       .  S
Fe135       O144   1.982       .  S
O136        C143   1.267       .  A
O137        C599   1.266   1_455  A
O138        C143   1.267       .  A
O139        C142   1.266       .  A
O140        C152   1.267       .  A
O141        C154   1.267       .  A
C142        O147   1.267       .  A
C142        C180   1.434       .  S
C143        C181   1.434       .  S
O144       Fe582   1.983       .  S
O145        C148   1.266       .  A
O146       Fe581   2.064       .  S
O146        C148   1.266       .  A
C148        C183   1.432       .  S
O149       Fe581   2.064       .  S
O149        C154   1.267       .  A
O150        C600   1.267   1_455  A
C151        O153   1.267       .  A
C151        O585   1.266       .  A
C151        C215   1.436       .  S
C152        O598   1.267       .  A
C152        C213   1.436       .  S
C154        C178   1.435       .  S
Fe155       O171   2.064       .  S
Fe155       O161   2.064       .  S
Fe155       O168   2.064       .  S
Fe155       O160   2.064       .  S
Fe155       O166   1.983       .  S
Fe156       O159   2.062       .  S
Fe156       O163   2.066       .  S
Fe156       O167   2.061       .  S
Fe156       O172   2.065       .  S
Fe156       O166   1.983       .  S
Fe157       O175   2.069       .  S
Fe157       O162   2.065       .  S
Fe157       O169   2.064       .  S
Fe157       O158   2.067       .  S
Fe157       O166   1.982       .  S
O158        C165   1.268       .  A
O159        C173   1.266       .  A
O160        C165   1.267       .  A
O161        C164   1.266       .  A
O162        C174   1.267       .  A
O163        C176   1.267       .  A
C164        O169   1.267       .  A
C164        C179   1.434       .  S
C165        C177   1.435       .  S
O167        C170   1.266       .  A
O168        C170   1.266       .  A
C170        C184   1.432       .  S
O171        C176   1.267       .  A
O172        C174   1.267       .  A
C173        O175   1.268       .  A
C173        C188   1.436       .  S
C174        C186   1.435       .  S
C176        C182   1.434       .  S
C177        C178   1.206       .  T
C179        C180   1.205       .  T
C181        C406   1.206   1_545  T
C182        C405   1.206       .  T
C183        C408   1.204   1_545  T
C184        C407   1.204       .  T
C185        C186   1.206       .  T
C187        C188   1.206       .  T
C189        C190   1.206       .  T
C191        C192   1.204       .  T
C193        C418   1.206   1_545  T
C194        C417   1.206       .  T
C195        C420   1.206   1_545  T
C196        C419   1.206       .  T
C197        C422   1.206   1_545  T
C198        C421   1.206       .  T
C199        C200   1.206       .  T
C201        C202   1.206       .  T
C203        C204   1.205       .  T
C205        C430   1.206   1_545  T
C206        C429   1.206       .  T
C207        C432   1.204       .  T
C208        C431   1.204   1_545  T
C209        C210   1.206       .  T
C211        C212   1.207       .  T
C213        C438   1.206   1_544  T
C214        C437   1.206   1_556  T
C215        C216   1.206   1_554  T
C217        C218   1.206       .  T
C219        C220   1.205       .  T
C221        C446   1.206   1_545  T
C222        C445   1.206       .  T
C223        C448   1.205       .  T
C224        C447   1.205   1_545  T
Fe225       O689   2.064       .  S
Fe225       O231   2.064   1_655  S
Fe225       O686   2.064       .  S
Fe225       O230   2.065   1_655  S
Fe225       O684   1.983       .  S
Fe226       O229   2.063       .  S
Fe226       O233   2.066       .  S
Fe226       O237   2.062       .  S
Fe226       O242   2.067       .  S
Fe226       O236   1.983       .  S
Fe227       O245   2.069       .  S
Fe227       O232   2.065       .  S
Fe227       O239   2.064       .  S
Fe227       O228   2.066       .  S
Fe227       O684   1.982   1_455  S
O228        C235   1.267       .  A
O229        C243   1.267       .  A
O230        C235   1.267       .  A
O231        C234   1.266       .  A
O232        C692   1.267   1_455  A
O233        C246   1.267       .  A
C234        O239   1.267       .  A
C234        C447   1.434       .  S
C235        C442   1.435       .  S
O236       Fe673   1.983       .  S
O236       Fe675   1.982       .  S
O237        C240   1.266       .  A
O238       Fe673   2.064       .  S
O238        C240   1.266       .  A
C240        C444   1.433       .  S
O241       Fe673   2.064       .  S
O241        C246   1.267       .  A
O242        C244   1.267       .  A
C243        O693   1.267       .  A
C243        C438   1.436       .  S
C244        O680   1.267       .  A
C244        C440   1.436       .  S
O245        C691   1.267   1_455  A
C246        C446   1.435       .  S
Fe247       O263   2.064       .  S
Fe247       O253   2.064       .  S
Fe247       O260   2.064       .  S
Fe247       O252   2.064       .  S
Fe247       O258   1.983       .  S
Fe248       O251   2.063       .  S
Fe248       O255   2.067       .  S
Fe248       O259   2.061       .  S
Fe248       O264   2.067       .  S
Fe248       O258   1.983       .  S
Fe249       O267   2.068       .  S
Fe249       O254   2.065       .  S
Fe249       O261   2.064       .  S
Fe249       O250   2.066       .  S
Fe249       O258   1.982       .  S
O250        C257   1.267       .  A
O251        C265   1.267       .  A
O252        C257   1.267       .  A
O253        C256   1.266       .  A
O254        C266   1.267       .  A
O255        C268   1.267       .  A
C256        O261   1.267       .  A
C256        C448   1.434       .  S
C257        C445   1.435       .  S
O259        C262   1.266       .  A
O260        C262   1.266       .  A
C262        C443   1.433       .  S
O263        C268   1.267       .  A
O264        C266   1.267       .  A
C265        O267   1.267       .  A
C265        C433   1.436       .  S
C266        C435   1.436       .  S
C268        C441   1.435       .  S
Fe269       O285   2.064       .  S
Fe269       O275   2.064       .  S
Fe269       O282   2.064       .  S
Fe269       O274   2.064       .  S
Fe269       O280   1.983       .  S
Fe270       O273   2.062       .  S
Fe270       O277   2.066       .  S
Fe270       O281   2.060       .  S
Fe270       O286   2.066       .  S
Fe270       O280   1.983       .  S
Fe271       O289   2.068       .  S
Fe271       O276   2.065       .  S
Fe271       O283   2.064       .  S
Fe271       O272   2.066       .  S
Fe271       O280   1.982       .  S
O272        C279   1.268       .  A
O273        C287   1.266       .  A
O274        C279   1.267       .  A
O275        C278   1.266       .  A
O276        C288   1.267       .  A
O277        C290   1.267       .  A
C278        O283   1.267       .  A
C278        C427   1.434       .  S
C279        C430   1.435       .  S
O281        C284   1.266       .  A
O282        C284   1.267       .  A
C284        C431   1.432       .  S
O285        C290   1.267       .  A
O286        C288   1.267       .  A
C287        O289   1.267       .  A
C287        C424   1.435       .  S
C288        C422   1.436       .  S
C290        C425   1.435       .  S
Fe291       O755   2.064       .  S
Fe291       O745   2.064       .  S
Fe291       O304   2.064   1_655  S
Fe291       O296   2.064   1_655  S
Fe291       O302   1.983       .  S
Fe292       O743   2.063       .  S
Fe292       O747   2.067       .  S
Fe292       O303   2.061   1_655  S
Fe292       O308   2.067   1_655  S
Fe292       O302   1.983       .  S
Fe293       O759   2.069       .  S
Fe293       O298   2.064   1_655  S
Fe293       O753   2.064       .  S
Fe293       O294   2.066   1_655  S
Fe293       O302   1.982       .  S
O294        C301   1.267       .  A
O295       Fe740   2.063       .  S
O295        C309   1.267       .  A
O296        C301   1.267       .  A
O297       Fe739   2.064       .  S
O297        C300   1.266       .  A
O298        C310   1.267       .  A
O299       Fe740   2.067       .  S
O299        C312   1.267       .  A
C300        O305   1.267       .  A
C300        C428   1.434       .  S
C301        C426   1.435       .  S
O303        C306   1.266       .  A
O304        C306   1.266       .  A
O305       Fe741   2.064       .  S
C306        C432   1.432       .  S
O307       Fe739   2.064       .  S
O307        C312   1.267       .  A
O308        C310   1.267       .  A
C309        O311   1.267       .  A
C309        C436   1.436       .  S
C310        C434   1.436       .  S
O311       Fe741   2.069       .  S
C312        C429   1.435       .  S
Fe313       O329   2.064       .  S
Fe313       O319   2.064       .  S
Fe313       O326   2.064       .  S
Fe313       O318   2.064       .  S
Fe313       O324   1.983       .  S
Fe314       O317   2.062       .  S
Fe314       O321   2.066       .  S
Fe314       O325   2.060       .  S
Fe314       O330   2.066       .  S
Fe314       O324   1.983       .  S
Fe315       O333   2.069       .  S
Fe315       O320   2.065       .  S
Fe315       O327   2.064       .  S
Fe315       O316   2.066       .  S
Fe315       O324   1.982       .  S
O316        C323   1.267       .  A
O317        C331   1.266       .  A
O318        C323   1.267       .  A
O319        C322   1.266       .  A
O320        C332   1.267       .  A
O321        C334   1.267       .  A
C322        O327   1.267       .  A
C322        C419   1.434       .  S
C323        C414   1.435       .  S
O325        C328   1.266       .  A
O326        C328   1.266       .  A
C328        C416   1.432       .  S
O329        C334   1.267       .  A
O330        C332   1.267       .  A
C331        O333   1.268       .  A
C331        C421   1.436       .  S
C332        C423   1.435       .  S
C334        C417   1.435       .  S
Fe335       O799   2.064       .  S
Fe335       O789   2.064       .  S
Fe335       O348   2.064       .  S
Fe335       O340   2.064       .  S
Fe335       O346   1.983       .  S
Fe336       O787   2.062       .  S
Fe336       O791   2.066       .  S
Fe336       O347   2.060       .  S
Fe336       O352   2.066       .  S
Fe336       O346   1.983       .  S
Fe337       O803   2.069       .  S
Fe337       O342   2.065       .  S
Fe337       O797   2.065       .  S
Fe337       O338   2.066       .  S
Fe337       O346   1.982       .  S
O338        C345   1.267       .  A
O339       Fe784   2.062   1_455  S
O339        C353   1.266       .  A
O340        C345   1.267       .  A
O341       Fe783   2.064   1_455  S
O341        C344   1.266       .  A
O342        C354   1.267       .  A
O343       Fe784   2.066   1_455  S
O343        C356   1.267       .  A
C344        O349   1.267       .  A
C344        C420   1.434       .  S
C345        C418   1.435       .  S
O347        C350   1.266       .  A
O348        C350   1.266       .  A
O349       Fe785   2.065   1_455  S
C350        C415   1.432       .  S
O351       Fe783   2.064   1_455  S
O351        C356   1.267       .  A
O352        C354   1.267       .  A
C353        O355   1.268       .  A
C353        C409   1.435       .  S
C354        C411   1.436       .  S
O355       Fe785   2.069   1_455  S
C356        C413   1.435       .  S
Fe357       O821   2.064       .  S
Fe357       O363   2.064       .  S
Fe357       O818   2.064       .  S
Fe357       O362   2.064       .  S
Fe357       O368   1.983       .  S
Fe358       O361   2.063       .  S
Fe358       O365   2.067       .  S
Fe358       O369   2.061       .  S
Fe358       O374   2.067       .  S
Fe358       O816   1.983   1_455  S
Fe359       O377   2.068       .  S
Fe359       O364   2.065       .  S
Fe359       O371   2.064       .  S
Fe359       O360   2.066       .  S
Fe359       O368   1.982       .  S
O360        C367   1.267       .  A
O361        C823   1.266   1_455  A
O362        C367   1.267       .  A
O363        C366   1.266       .  A
O364        C376   1.267       .  A
O365        C378   1.267       .  A
C366        O371   1.267       .  A
C366        C404   1.434       .  S
C367        C405   1.434       .  S
O368       Fe806   1.983       .  S
O369        C372   1.266       .  A
O370       Fe805   2.064       .  S
O370        C372   1.266       .  A
C372        C407   1.432       .  S
O373       Fe805   2.064       .  S
O373        C378   1.267       .  A
O374        C824   1.267   1_455  A
C375        O809   1.266       .  A
C375        O377   1.267       .  A
C375        C439   1.436       .  S
C376        O822   1.267       .  A
C376        C437   1.436       .  S
C378        C402   1.435       .  S
Fe379       O395   2.064       .  S
Fe379       O385   2.064       .  S
Fe379       O392   2.064       .  S
Fe379       O384   2.064       .  S
Fe379       O390   1.983       .  S
Fe380       O383   2.062       .  S
Fe380       O387   2.066       .  S
Fe380       O391   2.061       .  S
Fe380       O396   2.065       .  S
Fe380       O390   1.983       .  S
Fe381       O399   2.069       .  S
Fe381       O386   2.065       .  S
Fe381       O393   2.064       .  S
Fe381       O382   2.067       .  S
Fe381       O390   1.982       .  S
O382        C389   1.268       .  A
O383        C397   1.266       .  A
O384        C389   1.267       .  A
O385        C388   1.266       .  A
O386        C398   1.267       .  A
O387        C400   1.267       .  A
C388        O393   1.267       .  A
C388        C403   1.434       .  S
C389        C401   1.435       .  S
O391        C394   1.266       .  A
O392        C394   1.266       .  A
C394        C408   1.432       .  S
O395        C400   1.267       .  A
O396        C398   1.267       .  A
C397        O399   1.268       .  A
C397        C412   1.436       .  S
C398        C410   1.435       .  S
C400        C406   1.434       .  S
C401        C402   1.206       .  T
C403        C404   1.205       .  T
C409        C410   1.206       .  T
C411        C412   1.206       .  T
C413        C414   1.206       .  T
C415        C416   1.204       .  T
C423        C424   1.206       .  T
C425        C426   1.206       .  T
C427        C428   1.205       .  T
C433        C434   1.206       .  T
C435        C436   1.207       .  T
C439        C440   1.206   1_554  T
C441        C442   1.206       .  T
C443        C444   1.205       .  T
Fe449       O455   2.064       .  S
Fe449       O454   2.065       .  S
Fe450       O453   2.063       .  S
Fe450       O457   2.066       .  S
Fe450       O461   2.062       .  S
Fe450       O466   2.067       .  S
Fe450       O460   1.983       .  S
Fe451       O469   2.069       .  S
Fe451       O456   2.065       .  S
Fe451       O463   2.064       .  S
Fe451       O452   2.066       .  S
O452        C459   1.267       .  A
O453        C467   1.267       .  A
O454        C459   1.267       .  A
O455        C458   1.266       .  A
O457        C470   1.267       .  A
C458        O463   1.267       .  A
C458        C671   1.434       .  S
C459        C666   1.435       .  S
O461        C464   1.266       .  A
O462        C464   1.266       .  A
C464        C668   1.433       .  S
O465        C470   1.267       .  A
O466        C468   1.267       .  A
C467        C662   1.436       .  S
C468        C664   1.436       .  S
C470        C670   1.435       .  S
Fe471       O487   2.064       .  S
Fe471       O477   2.064       .  S
Fe471       O484   2.064       .  S
Fe471       O476   2.064       .  S
Fe471       O482   1.983       .  S
Fe472       O475   2.063       .  S
Fe472       O479   2.067       .  S
Fe472       O483   2.061       .  S
Fe472       O488   2.067       .  S
Fe472       O482   1.983       .  S
Fe473       O491   2.068       .  S
Fe473       O478   2.065       .  S
Fe473       O485   2.064       .  S
Fe473       O474   2.066       .  S
Fe473       O482   1.982       .  S
O474        C481   1.267       .  A
O475        C489   1.267       .  A
O476        C481   1.267       .  A
O477        C480   1.266       .  A
O478        C490   1.267       .  A
O479        C492   1.267       .  A
C480        O485   1.267       .  A
C480        C672   1.434       .  S
C481        C669   1.435       .  S
O483        C486   1.266       .  A
O484        C486   1.266       .  A
C486        C667   1.433       .  S
O487        C492   1.267       .  A
O488        C490   1.267       .  A
C489        O491   1.267       .  A
C489        C657   1.436       .  S
C490        C659   1.436       .  S
C492        C665   1.435       .  S
Fe493       O509   2.064       .  S
Fe493       O499   2.064       .  S
Fe493       O506   2.064       .  S
Fe493       O498   2.064       .  S
Fe493       O504   1.983       .  S
Fe494       O497   2.062       .  S
Fe494       O501   2.066       .  S
Fe494       O505   2.060       .  S
Fe494       O510   2.066       .  S
Fe494       O504   1.983       .  S
Fe495       O513   2.068       .  S
Fe495       O500   2.065       .  S
Fe495       O507   2.064       .  S
Fe495       O496   2.066       .  S
Fe495       O504   1.982       .  S
O496        C503   1.268       .  A
O497        C511   1.266       .  A
O498        C503   1.267       .  A
O499        C502   1.266       .  A
O500        C512   1.267       .  A
O501        C514   1.267       .  A
C502        O507   1.267       .  A
C502        C651   1.434       .  S
C503        C654   1.435       .  S
O505        C508   1.266       .  A
O506        C508   1.267       .  A
C508        C655   1.432       .  S
O509        C514   1.267       .  A
O510        C512   1.267       .  A
C511        O513   1.267       .  A
C511        C648   1.435       .  S
C512        C646   1.436       .  S
C514        C649   1.435       .  S
Fe515       O528   2.064       .  S
Fe515       O520   2.064       .  S
Fe515       O526   1.983       .  S
Fe516       O527   2.061       .  S
Fe516       O532   2.067       .  S
Fe516       O526   1.983       .  S
Fe517       O522   2.064       .  S
Fe517       O518   2.066       .  S
Fe517       O526   1.982       .  S
O518        C525   1.267       .  A
O519        C533   1.267       .  A
O520        C525   1.267       .  A
O521        C524   1.266       .  A
O522        C534   1.267       .  A
O523        C536   1.267       .  A
C524        O529   1.267       .  A
C524        C652   1.434       .  S
C525        C650   1.435       .  S
O527        C530   1.266       .  A
O528        C530   1.266       .  A
C530        C656   1.432       .  S
O531        C536   1.267       .  A
O532        C534   1.267       .  A
C533        O535   1.267       .  A
C533        C660   1.436       .  S
C534        C658   1.436       .  S
C536        C653   1.435       .  S
Fe537       O553   2.064       .  S
Fe537       O543   2.064       .  S
Fe537       O550   2.064       .  S
Fe537       O542   2.064       .  S
Fe537       O548   1.983       .  S
Fe538       O541   2.062       .  S
Fe538       O545   2.066       .  S
Fe538       O549   2.060       .  S
Fe538       O554   2.066       .  S
Fe538       O548   1.983       .  S
Fe539       O557   2.069       .  S
Fe539       O544   2.065       .  S
Fe539       O551   2.064       .  S
Fe539       O540   2.066       .  S
Fe539       O548   1.982       .  S
O540        C547   1.267       .  A
O541        C555   1.266       .  A
O542        C547   1.267       .  A
O543        C546   1.266       .  A
O544        C556   1.267       .  A
O545        C558   1.267       .  A
C546        O551   1.267       .  A
C546        C643   1.434       .  S
C547        C638   1.435       .  S
O549        C552   1.266       .  A
O550        C552   1.266       .  A
C552        C640   1.432       .  S
O553        C558   1.267       .  A
O554        C556   1.267       .  A
C555        O557   1.268       .  A
C555        C645   1.436       .  S
C556        C647   1.435       .  S
C558        C641   1.435       .  S
Fe559       O572   2.064       .  S
Fe559       O564   2.064       .  S
Fe559       O570   1.983       .  S
Fe560       O571   2.060       .  S
Fe560       O576   2.066       .  S
Fe560       O570   1.983       .  S
Fe561       O566   2.065       .  S
Fe561       O562   2.066       .  S
Fe561       O570   1.982       .  S
O562        C569   1.267       .  A
O563        C577   1.266       .  A
O564        C569   1.267       .  A
O565        C568   1.266       .  A
O566        C578   1.267       .  A
O567        C580   1.267       .  A
C568        O573   1.267       .  A
C568        C644   1.434       .  S
C569        C642   1.435       .  S
O571        C574   1.266       .  A
O572        C574   1.266       .  A
C574        C639   1.432       .  S
O575        C580   1.267       .  A
O576        C578   1.267       .  A
C577        O579   1.268       .  A
C577        C633   1.435       .  S
C578        C635   1.436       .  S
C580        C637   1.435       .  S
Fe581       O587   2.064   1_455  S
Fe581       O586   2.064   1_455  S
Fe581       O592   1.983   1_455  S
Fe582       O585   2.063       .  S
Fe582       O589   2.067       .  S
Fe582       O593   2.061       .  S
Fe582       O598   2.067       .  S
Fe583       O601   2.068       .  S
Fe583       O588   2.065       .  S
Fe583       O595   2.064       .  S
Fe583       O584   2.066       .  S
Fe583       O592   1.982       .  S
O584        C591   1.267       .  A
O586        C591   1.267       .  A
O587        C590   1.266       .  A
O588        C600   1.267       .  A
O589        C602   1.267       .  A
C590        O595   1.267       .  A
C590        C628   1.434       .  S
C591        C629   1.434       .  S
O593        C596   1.266       .  A
O594        C596   1.266       .  A
C596        C631   1.432       .  S
O597        C602   1.267       .  A
C599        O601   1.267       .  A
C599        C663   1.436       .  S
C600        C661   1.436       .  S
C602        C626   1.435       .  S
Fe603       O619   2.064       .  S
Fe603       O609   2.064       .  S
Fe603       O616   2.064       .  S
Fe603       O608   2.064       .  S
Fe603       O614   1.983       .  S
Fe604       O607   2.062       .  S
Fe604       O611   2.066       .  S
Fe604       O615   2.061       .  S
Fe604       O620   2.065       .  S
Fe604       O614   1.983       .  S
Fe605       O623   2.069       .  S
Fe605       O610   2.065       .  S
Fe605       O617   2.064       .  S
Fe605       O606   2.067       .  S
Fe605       O614   1.982       .  S
O606        C613   1.268       .  A
O607        C621   1.266       .  A
O608        C613   1.267       .  A
O609        C612   1.266       .  A
O610        C622   1.267       .  A
O611        C624   1.267       .  A
C612        O617   1.267       .  A
C612        C627   1.434       .  S
C613        C625   1.435       .  S
O615        C618   1.266       .  A
O616        C618   1.266       .  A
C618        C632   1.432       .  S
O619        C624   1.267       .  A
O620        C622   1.267       .  A
C621        O623   1.268       .  A
C621        C636   1.436       .  S
C622        C634   1.435       .  S
C624        C630   1.434       .  S
C625        C626   1.206       .  T
C627        C628   1.205       .  T
C629        C854   1.206   1_545  T
C630        C853   1.206       .  T
C631        C856   1.204   1_545  T
C632        C855   1.204       .  T
C633        C634   1.206       .  T
C635        C636   1.206       .  T
C637        C638   1.206       .  T
C639        C640   1.204       .  T
C641        C866   1.206   1_545  T
C642        C865   1.206       .  T
C643        C868   1.206   1_545  T
C644        C867   1.206       .  T
C645        C870   1.206   1_545  T
C646        C869   1.206       .  T
C647        C648   1.206       .  T
C649        C650   1.206       .  T
C651        C652   1.205       .  T
C653        C878   1.206   1_545  T
C654        C877   1.206       .  T
C655        C880   1.204       .  T
C656        C879   1.204   1_545  T
C657        C658   1.206       .  T
C659        C660   1.207       .  T
C661        C886   1.206   1_544  T
C662        C885   1.206   1_556  T
C663        C664   1.206   1_554  T
C665        C666   1.206       .  T
C667        C668   1.205       .  T
C669        C894   1.206   1_545  T
C670        C893   1.206       .  T
C671        C896   1.205       .  T
C672        C895   1.205   1_545  T
Fe673       O679   2.064       .  S
Fe673       O678   2.065       .  S
Fe674       O677   2.063       .  S
Fe674       O681   2.066       .  S
Fe674       O685   2.062       .  S
Fe674       O690   2.067       .  S
Fe674       O684   1.983       .  S
Fe675       O693   2.069       .  S
Fe675       O680   2.065       .  S
Fe675       O687   2.064       .  S
Fe675       O676   2.066       .  S
O676        C683   1.267       .  A
O677        C691   1.267       .  A
O678        C683   1.267       .  A
O679        C682   1.266       .  A
O681        C694   1.267       .  A
C682        O687   1.267       .  A
C682        C895   1.434       .  S
C683        C890   1.435       .  S
O685        C688   1.266       .  A
O686        C688   1.266       .  A
C688        C892   1.433       .  S
O689        C694   1.267       .  A
O690        C692   1.267       .  A
C691        C886   1.436       .  S
C692        C888   1.436       .  S
C694        C894   1.435       .  S
Fe695       O711   2.064       .  S
Fe695       O701   2.064       .  S
Fe695       O708   2.064       .  S
Fe695       O700   2.064       .  S
Fe695       O706   1.983       .  S
Fe696       O699   2.063       .  S
Fe696       O703   2.067       .  S
Fe696       O707   2.061       .  S
Fe696       O712   2.067       .  S
Fe696       O706   1.983       .  S
Fe697       O715   2.068       .  S
Fe697       O702   2.065       .  S
Fe697       O709   2.064       .  S
Fe697       O698   2.066       .  S
Fe697       O706   1.982       .  S
O698        C705   1.267       .  A
O699        C713   1.267       .  A
O700        C705   1.267       .  A
O701        C704   1.266       .  A
O702        C714   1.267       .  A
O703        C716   1.267       .  A
C704        O709   1.267       .  A
C704        C896   1.434       .  S
C705        C893   1.435       .  S
O707        C710   1.266       .  A
O708        C710   1.266       .  A
C710        C891   1.433       .  S
O711        C716   1.267       .  A
O712        C714   1.267       .  A
C713        O715   1.267       .  A
C713        C881   1.436       .  S
C714        C883   1.436       .  S
C716        C889   1.435       .  S
Fe717       O733   2.064       .  S
Fe717       O723   2.064       .  S
Fe717       O730   2.064       .  S
Fe717       O722   2.064       .  S
Fe717       O728   1.983       .  S
Fe718       O721   2.062       .  S
Fe718       O725   2.066       .  S
Fe718       O729   2.060       .  S
Fe718       O734   2.066       .  S
Fe718       O728   1.983       .  S
Fe719       O737   2.068       .  S
Fe719       O724   2.065       .  S
Fe719       O731   2.064       .  S
Fe719       O720   2.066       .  S
Fe719       O728   1.982       .  S
O720        C727   1.268       .  A
O721        C735   1.266       .  A
O722        C727   1.267       .  A
O723        C726   1.266       .  A
O724        C736   1.267       .  A
O725        C738   1.267       .  A
C726        O731   1.267       .  A
C726        C875   1.434       .  S
C727        C878   1.435       .  S
O729        C732   1.266       .  A
O730        C732   1.267       .  A
C732        C879   1.432       .  S
O733        C738   1.267       .  A
O734        C736   1.267       .  A
C735        O737   1.267       .  A
C735        C872   1.435       .  S
C736        C870   1.436       .  S
C738        C873   1.435       .  S
Fe739       O752   2.064       .  S
Fe739       O744   2.064       .  S
Fe739       O750   1.983       .  S
Fe740       O751   2.061       .  S
Fe740       O756   2.067       .  S
Fe740       O750   1.983       .  S
Fe741       O746   2.064       .  S
Fe741       O742   2.066       .  S
Fe741       O750   1.982       .  S
O742        C749   1.267       .  A
O743        C757   1.267       .  A
O744        C749   1.267       .  A
O745        C748   1.266       .  A
O746        C758   1.267       .  A
O747        C760   1.267       .  A
C748        O753   1.267       .  A
C748        C876   1.434       .  S
C749        C874   1.435       .  S
O751        C754   1.266       .  A
O752        C754   1.266       .  A
C754        C880   1.432       .  S
O755        C760   1.267       .  A
O756        C758   1.267       .  A
C757        O759   1.267       .  A
C757        C884   1.436       .  S
C758        C882   1.436       .  S
C760        C877   1.435       .  S
Fe761       O777   2.064       .  S
Fe761       O767   2.064       .  S
Fe761       O774   2.064       .  S
Fe761       O766   2.064       .  S
Fe761       O772   1.983       .  S
Fe762       O765   2.062       .  S
Fe762       O769   2.066       .  S
Fe762       O773   2.060       .  S
Fe762       O778   2.066       .  S
Fe762       O772   1.983       .  S
Fe763       O781   2.069       .  S
Fe763       O768   2.065       .  S
Fe763       O775   2.064       .  S
Fe763       O764   2.066       .  S
Fe763       O772   1.982       .  S
O764        C771   1.267       .  A
O765        C779   1.266       .  A
O766        C771   1.267       .  A
O767        C770   1.266       .  A
O768        C780   1.267       .  A
O769        C782   1.267       .  A
C770        O775   1.267       .  A
C770        C867   1.434       .  S
C771        C862   1.435       .  S
O773        C776   1.266       .  A
O774        C776   1.266       .  A
C776        C864   1.432       .  S
O777        C782   1.267       .  A
O778        C780   1.267       .  A
C779        O781   1.268       .  A
C779        C869   1.436       .  S
C780        C871   1.435       .  S
C782        C865   1.435       .  S
Fe783       O796   2.064       .  S
Fe783       O788   2.064       .  S
Fe783       O794   1.983       .  S
Fe784       O795   2.060       .  S
Fe784       O800   2.066       .  S
Fe784       O794   1.983       .  S
Fe785       O790   2.065       .  S
Fe785       O786   2.066       .  S
Fe785       O794   1.982       .  S
O786        C793   1.267       .  A
O787        C801   1.266       .  A
O788        C793   1.267       .  A
O789        C792   1.266       .  A
O790        C802   1.267       .  A
O791        C804   1.267       .  A
C792        O797   1.267       .  A
C792        C868   1.434       .  S
C793        C866   1.435       .  S
O795        C798   1.266       .  A
O796        C798   1.266       .  A
C798        C863   1.432       .  S
O799        C804   1.267       .  A
O800        C802   1.267       .  A
C801        O803   1.268       .  A
C801        C857   1.435       .  S
C802        C859   1.436       .  S
C804        C861   1.435       .  S
Fe805       O811   2.064   1_455  S
Fe805       O810   2.064   1_455  S
Fe805       O816   1.983   1_455  S
Fe806       O809   2.063       .  S
Fe806       O813   2.067       .  S
Fe806       O817   2.061       .  S
Fe806       O822   2.067       .  S
Fe807       O825   2.068       .  S
Fe807       O812   2.065       .  S
Fe807       O819   2.064       .  S
Fe807       O808   2.066       .  S
Fe807       O816   1.982       .  S
O808        C815   1.267       .  A
O810        C815   1.267       .  A
O811        C814   1.266       .  A
O812        C824   1.267       .  A
O813        C826   1.267       .  A
C814        O819   1.267       .  A
C814        C852   1.434       .  S
C815        C853   1.434       .  S
O817        C820   1.266       .  A
O818        C820   1.266       .  A
C820        C855   1.432       .  S
O821        C826   1.267       .  A
C823        O825   1.267       .  A
C823        C887   1.436       .  S
C824        C885   1.436       .  S
C826        C850   1.435       .  S
Fe827       O843   2.064       .  S
Fe827       O833   2.064       .  S
Fe827       O840   2.064       .  S
Fe827       O832   2.064       .  S
Fe827       O838   1.983       .  S
Fe828       O831   2.062       .  S
Fe828       O835   2.066       .  S
Fe828       O839   2.061       .  S
Fe828       O844   2.065       .  S
Fe828       O838   1.983       .  S
Fe829       O847   2.069       .  S
Fe829       O834   2.065       .  S
Fe829       O841   2.064       .  S
Fe829       O830   2.067       .  S
Fe829       O838   1.982       .  S
O830        C837   1.268       .  A
O831        C845   1.266       .  A
O832        C837   1.267       .  A
O833        C836   1.266       .  A
O834        C846   1.267       .  A
O835        C848   1.267       .  A
C836        O841   1.267       .  A
C836        C851   1.434       .  S
C837        C849   1.435       .  S
O839        C842   1.266       .  A
O840        C842   1.266       .  A
C842        C856   1.432       .  S
O843        C848   1.267       .  A
O844        C846   1.267       .  A
C845        O847   1.268       .  A
C845        C860   1.436       .  S
C846        C858   1.435       .  S
C848        C854   1.434       .  S
C849        C850   1.206       .  T
C851        C852   1.205       .  T
C857        C858   1.206       .  T
C859        C860   1.206       .  T
C861        C862   1.206       .  T
C863        C864   1.204       .  T
C871        C872   1.206       .  T
C873        C874   1.206       .  T
C875        C876   1.205       .  T
C881        C882   1.206       .  T
C883        C884   1.207       .  T
C887        C888   1.206   1_554  T
C889        C890   1.206       .  T
C891        C892   1.205       .  T
