geometry optimzed in LAMMPS
_audit_creation_date              2020-11-30 
_audit_creation_method            'lammps2cif' 
_symmetry_space_group_name_H-M    'P1' 
_symmetry_Int_Tables_number       1 
_symmetry_cell_setting            triclinic 
loop_ 
_symmetry_equiv_pos_as_xyz 
  x,y,z 
_cell_length_a                    38.07622042 
_cell_length_b                    37.69033147692392 
_cell_length_c                    23.72625006250417 
_cell_angle_alpha                 90.37283467080914 
_cell_angle_beta                  89.84629160939036 
_cell_angle_gamma                 119.60322501671754 
loop_ 
_atom_site_label 
_atom_site_type_symbol 
_atom_site_fract_x 
_atom_site_fract_y 
_atom_site_fract_z 
_atom_site_charge 
O1          O  0.06084578  0.42663106  0.14853822    -0.81000
C2          C  0.19324737  0.45469219  0.28101982     0.98400
O3          O  0.17605244  0.42553150  0.24596163    -0.70100
O4          O  0.09822768  0.38292418  0.25930060    -0.73700
Al5        Al  0.13117499  0.40966847  0.19604059     1.49000
C6          C  0.06624953  0.38170757  0.27604381     0.93600
O7          O  0.09920287  0.48666586  0.28482290    -0.79900
O8          O  0.16209491  0.52066883  0.14283882    -0.73500
Al9        Al  0.08322011  0.45592876  0.21546149     1.90100
O10         O  0.15762355  0.53330676  0.25344412    -0.72500
O11         O  0.20896685  0.48791997  0.16706825    -0.72400
O12         O  0.19097590  0.48708023  0.27686499    -0.78000
O13         O  0.16544941  0.42958769  0.13019796    -0.76200
O14         O  0.12962346  0.45566866  0.20710759    -1.12400
O15         O  0.08545613  0.38488088  0.14582481    -0.71600
C16         C  0.06074941  0.39563047  0.12856343     0.99200
C17         C  0.12815815  0.52285870  0.28595977     0.95600
Al18       Al  0.17581875  0.50299135  0.20985978     1.55600
O19         O  0.05661286  0.40739393  0.25936554    -0.76200
C20         C  0.20066214  0.46004439  0.13166819     0.99700
C21         C  0.12974889  0.52244553  0.13795146     0.94600
O22         O  0.10013150  0.50345011  0.17089898    -0.81500
O23         O  0.98188004  0.17588140  0.49634227    -0.81000
C24         C  0.04122117  0.20494087  0.28121341     0.98400
O25         O  0.04981866  0.19340224  0.32652344    -0.70100
O26         O  0.05335718  0.18066169  0.43410964    -0.73700
Al27       Al  0.01192655  0.16080236  0.38072234     1.49000
C28         C  0.07203016  0.21317749  0.46105148     0.93600
O29         O  0.02720000  0.27725186  0.41710476    -0.79900
O30         O  0.92742048  0.20390850  0.37396247    -0.73500
Al31       Al  0.00419562  0.22539947  0.45298388     1.90100
O32         O  0.00125801  0.26183322  0.33173957    -0.72500
O33         O  0.93165831  0.14710797  0.32027034    -0.72400
O34         O  0.00797516  0.20498629  0.27508165    -0.78000
O35         O  0.97586818  0.12697761  0.32344690    -0.76200
O36         O  0.99509817  0.19728105  0.38830110    -1.12400
O37         O  0.97503816  0.12739927  0.43548612    -0.71600
C38         C  0.96785466  0.13849432  0.48265599     0.99200
C39         C  0.02402280  0.28768630  0.36778872     0.95600
Al40       Al  0.96931830  0.20422148  0.33028231     1.55600
O41         O  0.05865336  0.23750822  0.46310165    -0.76200
C42         C  0.94159308  0.12064545  0.30959379     0.99700
C43         C  0.92332111  0.20959320  0.42520554     0.94600
O44         O  0.95210883  0.22026911  0.45899256    -0.81500
O45         O  0.89878081  0.35230621  0.13188876    -0.81000
C46         C  0.81976713  0.28050891  0.42921768     0.98400
O47         O  0.80822032  0.29881185  0.46318562    -0.70100
O48         O  0.79282286  0.27243492  0.06436952    -0.73700
Al49       Al  0.82884503  0.32509801  0.03322338     1.49000
C50         C  0.79803975  0.26103330  0.11169787     0.93600
O51         O  0.87273941  0.25178821  0.05828170    -0.79900
O52         O  0.94887015  0.36541256  0.00493536    -0.73500
Al53       Al  0.88589921  0.30228008  0.09423271     1.90100
O54         O  0.91076587  0.28034057  0.48565262    -0.72500
O55         O  0.89264938  0.36866961  0.43970168    -0.72400
O56         O  0.85486714  0.28559255  0.43107363    -0.78000
O57         O  0.85643821  0.37824432  0.00219862    -0.76200
O58         O  0.87154265  0.31799967  0.03205444    -1.12400
O59         O  0.84286044  0.35229263  0.10597883    -0.71600
C60         C  0.87470208  0.36638642  0.13618715     0.99200
C61         C  0.88680920  0.24885992  0.01099362     0.95600
Al62       Al  0.89999530  0.32505593  0.46987691     1.55600
O63         O  0.83347262  0.27504280  0.13034228    -0.76200
C64         C  0.87585556  0.38830990  0.45787046     0.99700
C65         C  0.96418973  0.35663237  0.04591661     0.94600
O66         O  0.94252136  0.32577267  0.07590400    -0.81500
O67         O  0.90620924  0.58184006  0.22459135    -0.81000
C68         C  0.85208686  0.46856329  0.39862918     0.98400
O69         O  0.86156255  0.50562909  0.40851732    -0.70100
O70         O  0.93037872  0.55296278  0.36353526    -0.73700
Al71       Al  0.88114028  0.55119113  0.35486736     1.49000
C72         C  0.95580295  0.55393958  0.32935117     0.93600
O73         O  0.89241948  0.47467233  0.23308916    -0.79900
O74         O  0.79864098  0.49376294  0.23898247    -0.73500
Al75       Al  0.89690924  0.52805865  0.23452298     1.90100
O76         O  0.82720085  0.44169568  0.24298977    -0.72500
O77         O  0.79113055  0.49079505  0.35041811    -0.72400
O78         O  0.83543767  0.45124463  0.35274252    -0.78000
O79         O  0.83367705  0.55557851  0.35692140    -0.76200
O80         O  0.86568541  0.51814769  0.29506044    -1.12400
O81         O  0.90455013  0.60145642  0.31122972    -0.71600
C82         C  0.91084993  0.60931253  0.25898134     0.99200
C83         C  0.85886107  0.44274202  0.22597259     0.95600
Al84       Al  0.81733608  0.47331618  0.29645769     1.55600
O85         O  0.94719495  0.54686113  0.27721368    -0.76200
C86         C  0.79885612  0.52618119  0.36430906     0.99700
C87         C  0.81510720  0.50411912  0.19093823     0.94600
O88         O  0.85143300  0.51203227  0.18229381    -0.81500
O89         O  0.10303238  0.69083563  0.02153298    -0.81000
C90         C  0.14945596  0.62566893  0.34614703     0.98400
O91         O  0.13799182  0.65166190  0.33560872    -0.70100
O92         O  0.07157896  0.62721194  0.38764744    -0.73700
Al93       Al  0.11776950  0.67727205  0.38983763     1.49000
C94         C  0.04829685  0.60546395  0.42549081     0.93600
O95         O  0.11994185  0.60159988  0.01927587    -0.79900
O96         O  0.21318087  0.71330250  0.00259051    -0.73500
Al97       Al  0.11441778  0.64877939  0.01478423     1.90100
O98         O  0.18480289  0.63297712  0.01012321    -0.72500
O99         O  0.20706402  0.71109176  0.38188688    -0.72400
O100        O  0.16835140  0.62786580  0.39089420    -0.78000
O101        O  0.16186220  0.73037320  0.38259296    -0.76200
O102        O  0.13904919  0.66568550  0.44832854    -1.12400
O103        O  0.09250723  0.70254435  0.43433155    -0.71600
C104        C  0.09111663  0.70806644  0.48703149     0.99200
C105        C  0.15322490  0.60348330  0.02826865     0.95600
Al106      Al  0.18831111  0.67179371  0.44177411     1.55600
O107        O  0.05940123  0.61202573  0.47698088    -0.76200
C108        C  0.19592825  0.73632428  0.36820282     0.99700
C109        C  0.19787795  0.71192921  0.05077755     0.94600
O110        O  0.16200443  0.68344890  0.06329400    -0.81500
O111        O  0.97189361  0.73252624  0.19861565    -0.81000
C112        C  0.03745051  0.84717926  0.02331238     0.98400
O113        O  0.00750473  0.81151337  0.01507586    -0.70100
O114        O  0.03024979  0.76323369  0.05726531    -0.73700
Al115      Al  0.98341741  0.76596906  0.06934092     1.49000
C116        C  0.05030014  0.75528208  0.09154979     0.93600
O117        O  0.07171775  0.82939479  0.19075067    -0.79900
O118        O  0.96991835  0.83205559  0.19005258    -0.73500
Al119      Al  0.02021838  0.78210613  0.18944240     1.90100
O120        O  0.05128816  0.87365199  0.17971898    -0.72500
O121        O  0.96041093  0.83173256  0.08039009    -0.72400
O122        O  0.04342728  0.86390754  0.07102284    -0.78000
O123        O  0.93330992  0.76546344  0.07386882    -0.76200
O124        O  0.00307239  0.79773949  0.13003119    -1.12400
O125        O  0.95756812  0.71386492  0.11050736    -0.71600
C126        C  0.95345016  0.70501660  0.16264959     0.99200
C127        C  0.07746268  0.86494843  0.19641367     0.95600
Al128      Al  0.00604009  0.84634478  0.13009200     1.55600
O129        O  0.04557120  0.75701954  0.14448455    -0.76200
C130        C  0.93049905  0.79717206  0.06847182     0.99700
C131        C  0.97343369  0.81872759  0.23706728     0.94600
O132        O  0.99712034  0.80424643  0.24403381    -0.81500
O133        O  0.28997239  0.90253773  0.26213244    -0.81000
C134        C  0.40911036  0.89535576  0.13419090     0.98400
O135        O  0.41728182  0.92077065  0.17462027    -0.70100
O136        O  0.37495664  0.95693649  0.16889501    -0.73700
Al137      Al  0.38190567  0.92802467  0.22727956     1.49000
C138        C  0.34490445  0.95370550  0.14267988     0.93600
O139        O  0.28103182  0.84613037  0.12609484    -0.79900
O140        O  0.31628824  0.81380668  0.26293338    -0.73500
Al141      Al  0.29068364  0.87495456  0.19646244     1.90100
O142        O  0.29930380  0.80312627  0.15332127    -0.72500
O143        O  0.39511794  0.85592781  0.24070789    -0.72400
O144        O  0.37640323  0.86138367  0.13297814    -0.78000
O145        O  0.39610498  0.90514888  0.29008448    -0.76200
O146        O  0.33932888  0.88080648  0.20766899    -1.12400
O147        O  0.35356341  0.94486780  0.28035826    -0.71600
C148        C  0.31642472  0.93225195  0.28953638     0.99200
C149        C  0.27842277  0.81174832  0.12155902     0.95600
Al150      Al  0.34617421  0.83764873  0.19814649     1.55600
O151        O  0.30971585  0.92399506  0.15137088    -0.76200
C152        C  0.40772324  0.87932657  0.28273836     0.99700
C153        C  0.28093346  0.80780068  0.27146347     0.94600
O154        O  0.26574144  0.82556535  0.24246577    -0.81500
O155        O  0.18731749  0.02140550  0.49107976    -0.81000
C156        C  0.14726897  0.96185950  0.27309343     0.98400
O157        O  0.12963411  0.95370010  0.32025926    -0.70100
O158        O  0.11700993  0.94981647  0.42906964    -0.73700
Al159      Al  0.14010765  0.99300471  0.37666652     1.49000
C160        C  0.12978903  0.92941687  0.45419234     0.93600
O161        O  0.23819429  0.97020795  0.40644932    -0.79900
O162        O  0.27205781  0.06366212  0.35950784    -0.73500
Al163      Al  0.21071320  0.99565768  0.44434853     1.90100
O164        O  0.23955559  0.98679311  0.31712547    -0.72500
O165        O  0.21195555  0.07159340  0.31534727    -0.72400
O166        O  0.18133756  0.99365774  0.26612854    -0.78000
O167        O  0.14669143  0.03262026  0.32199745    -0.76200
O168        O  0.19190086  0.00525773  0.38073502    -1.12400
O169        O  0.14743982  0.03142956  0.43324357    -0.71600
C170        C  0.16617025  0.03813927  0.47950346     0.99200
C171        C  0.24684454  0.96805899  0.35522963     0.95600
Al172      Al  0.22348005  0.02714655  0.32004860     1.55600
O173        O  0.16695855  0.94170073  0.45551254    -0.76200
C174        C  0.17668497  0.06550252  0.30681896     0.99700
C175        C  0.28194913  0.06863079  0.41069472     0.94600
O176        O  0.25770135  0.04622069  0.44746924    -0.81500
O177        O  0.47442099  0.15942890  0.41884821    -0.81000
C178        C  0.50601557  0.13641324  0.13780779     0.98400
O179        O  0.52405903  0.14489906  0.09085605    -0.70100
O180        O  0.53836632  0.15578925  0.98250236    -0.73700
Al181      Al  0.51678368  0.17601836  0.03598771     1.49000
C182        C  0.52932577  0.13166653  0.46441729     0.93600
O183        O  0.41748359  0.05819804  0.00541366    -0.79900
O184        O  0.38711496  0.12634419  0.04707692    -0.73500
Al185      Al  0.44878004  0.11408467  0.46939179     1.90100
O186        O  0.41033074  0.07521748  0.09206693    -0.72500
O187        O  0.44912442  0.18979818  0.09475140    -0.72400
O188        O  0.47274215  0.13639899  0.14450077    -0.78000
O189        O  0.51327467  0.21005603  0.09208893    -0.76200
O190        O  0.46450085  0.13883806  0.03047594    -1.12400
O191        O  0.50533162  0.21301836  0.47526927    -0.71600
C192        C  0.49210970  0.19753092  0.42752016     0.99200
C193        C  0.40502674  0.04854319  0.05554222     0.95600
Al194      Al  0.43251217  0.13252735  0.08943953     1.55600
O195        O  0.49292323  0.10409461  0.46674317    -0.76200
C196        C  0.48502573  0.21626926  0.10570469     0.99700
C197        C  0.37729340  0.11884739  0.99595070     0.94600
O198        O  0.40292568  0.12040694  0.46251342    -0.81500
O199        O  0.74390730  0.97497956  0.05211173    -0.81000
C200        C  0.85186080  0.03231514  0.23442352     0.98400
O201        O  0.81457194  0.00632275  0.24110911    -0.70100
O202        O  0.76856333  0.02978002  0.19556203    -0.73700
Al203      Al  0.77101544  0.98169764  0.18529087     1.49000
C204        C  0.76375611  0.05158340  0.16040864     0.93600
O205        O  0.84251815  0.07156001  0.07496038    -0.79900
O206        O  0.83281112  0.96163436  0.06719561    -0.73500
Al207      Al  0.79377644  0.02154265  0.06704502     1.90100
O208        O  0.88085148  0.04378480  0.08047776    -0.72500
O209        O  0.83266368  0.95199388  0.17641376    -0.72400
O210        O  0.86970332  0.03419852  0.18873040    -0.78000
O211        O  0.76828652  0.92979783  0.18580095    -0.76200
O212        O  0.80441646  0.00013090  0.12692978    -1.12400
O213        O  0.72217407  0.95602181  0.13865418    -0.71600
C214        C  0.71583677  0.95374264  0.08568410     0.99200
C215        C  0.87652512  0.07420254  0.07037323     0.95600
Al216      Al  0.85011460  0.99795445  0.12813745     1.55600
O217        O  0.76876165  0.04792749  0.10835210    -0.76200
C218        C  0.79815834  0.92442585  0.19103240     0.99700
C219        C  0.82377089  0.96927955  0.01943172     0.94600
O220        O  0.81606566  0.99825890  0.01265350    -0.81500
O221        O  0.59655619  0.90082057  0.02370426    -0.81000
C222        C  0.48350233  0.85277728  0.35147058     0.98400
O223        O  0.51965122  0.86057045  0.34214670    -0.70100
O224        O  0.56558482  0.92983231  0.38897614    -0.73700
Al225      Al  0.56481914  0.88070227  0.39621227     1.49000
C226        C  0.57327379  0.95712794  0.42480790     0.93600
O227        O  0.49968141  0.90353740  0.01718606    -0.79900
O228        O  0.50589535  0.80125684  0.01869264    -0.73500
Al229      Al  0.54772482  0.90042940  0.01653773     1.90100
O230        O  0.45924194  0.83748516  0.01084459    -0.72500
O231        O  0.50380285  0.79046358  0.40208524    -0.72400
O232        O  0.46664455  0.83781950  0.39779949    -0.78000
O233        O  0.56847203  0.83273370  0.39491098    -0.76200
O234        O  0.53311055  0.86549479  0.45656350    -1.12400
O235        O  0.61570591  0.90531727  0.43845163    -0.71600
C236        C  0.62366882  0.90792661  0.49080052     0.99200
C237        C  0.46544946  0.87258080  0.02375085     0.95600
Al238      Al  0.48688892  0.81821988  0.45452952     1.55600
O239        O  0.56993902  0.94889971  0.47719248    -0.76200
C240        C  0.53881808  0.79764501  0.38882839     0.99700
C241        C  0.51799620  0.81904581  0.06567083     0.94600
O242        O  0.52765942  0.85635430  0.07211791    -0.81500
O243        O  0.69631163  0.10514052  0.21683561    -0.81000
C244        C  0.62308815  0.15258659  0.38372723     0.98400
O245        O  0.65409368  0.14897714  0.39282515    -0.70100
O246        O  0.63823526  0.07768488  0.35664420    -0.73700
Al247      Al  0.68184305  0.12961815  0.34256876     1.49000
C248        C  0.61939888  0.04838775  0.32321724     0.93600
O249        O  0.59321347  0.09351741  0.21804471    -0.79900
O250        O  0.69189216  0.20209343  0.21771647    -0.73500
Al251      Al  0.64634125  0.10231078  0.22258261     1.90100
O252        O  0.60876195  0.15725581  0.22354346    -0.72500
O253        O  0.69465695  0.21445619  0.32732660    -0.72400
O254        O  0.61451192  0.15907331  0.33469333    -0.78000
O255        O  0.72842460  0.18189493  0.33646799    -0.76200
O256        O  0.66019107  0.13667803  0.28031772    -1.12400
O257        O  0.71247879  0.10699186  0.30533550    -0.71600
C258        C  0.71719798  0.10101071  0.25388633     0.99200
C259        C  0.58439601  0.12091203  0.20977577     0.95600
Al260      Al  0.65290942  0.17968478  0.27583675     1.55600
O261        O  0.62334779  0.05366377  0.27007756    -0.76200
C262        C  0.72589761  0.21380780  0.34283009     0.99700
C263        C  0.69326089  0.18407639  0.17325970     0.94600
O264        O  0.66864814  0.14605602  0.16587448    -0.81500
O265        O  0.44088082  0.36953321  0.36310350    -0.81000
C266        C  0.48641646  0.30705323  0.18064238     0.98400
O267        O  0.47601646  0.33400693  0.17402529    -0.70100
O268        O  0.40804390  0.31155671  0.22132992    -0.73700
Al269      Al  0.45803485  0.35940485  0.23002593     1.49000
C270        C  0.38191541  0.29120818  0.25746994     0.93600
O271        O  0.43847404  0.26991065  0.34220152    -0.79900
O272        O  0.53991376  0.37679370  0.34916505    -0.73500
Al273      Al  0.44172660  0.32125276  0.34944856     1.90100
O274        O  0.50345023  0.29430029  0.33307446    -0.72500
O275        O  0.54839839  0.38717545  0.24027570    -0.72400
O276        O  0.50268304  0.30507426  0.22584899    -0.78000
O277        O  0.50678527  0.41054022  0.22827330    -0.76200
O278        O  0.47308755  0.34091161  0.28879821    -1.12400
O279        O  0.43580318  0.38643488  0.27613574    -0.71600
C280        C  0.43361247  0.39043860  0.32907022     0.99200
C281        C  0.46878158  0.26520262  0.34436963     0.95600
Al282      Al  0.51980564  0.34097103  0.28706400     1.55600
O283        O  0.39061702  0.29664812  0.30939044    -0.76200
C284        C  0.54179111  0.41523210  0.22515495     0.99700
C285        C  0.52367327  0.36943859  0.39720196     0.94600
O286        O  0.48674656  0.34250003  0.40356587    -0.81500
O287        O  0.26555605  0.24442877  0.19784620    -0.81000
C288        C  0.14922927  0.20411956  0.03402748     0.98400
O289        O  0.18216843  0.20402939  0.02391798    -0.70100
O290        O  0.24310220  0.26929282  0.06380604    -0.73700
Al291      Al  0.22671261  0.21417421  0.07461456     1.49000
C292        C  0.24692938  0.29768991  0.09571000     0.93600
O293        O  0.17233528  0.25256446  0.20276786    -0.79900
O294        O  0.16070200  0.14353323  0.19440320    -0.73500
Al295      Al  0.21701413  0.24395882  0.19394250     1.90100
O296        O  0.12510386  0.19003154  0.19325820    -0.72500
O297        O  0.14944776  0.13423537  0.08308841    -0.72400
O298        O  0.13280608  0.19551602  0.08235251    -0.78000
O299        O  0.21399722  0.15777019  0.07532699    -0.76200
O300        O  0.19752429  0.20978701  0.13578802    -1.12400
O301        O  0.27649990  0.22743190  0.11430206    -0.71600
C302        C  0.28807597  0.23959793  0.16422599     0.99200
C303        C  0.13656406  0.22557073  0.20998834     0.95600
Al304      Al  0.14661228  0.16946998  0.13831613     1.55600
O305        O  0.23920844  0.29201702  0.14791290    -0.76200
C306        C  0.17826244  0.12975061  0.06662422     0.99700
C307        C  0.18165193  0.16024603  0.23837028     0.94600
O308        O  0.19799380  0.19872930  0.24713103    -0.81500
O309        O  0.37119846  0.44740974  0.39270178    -0.81000
C310        C  0.30428854  0.49201825  0.06487879     0.98400
O311        O  0.33287913  0.48451867  0.07495199    -0.70100
O312        O  0.31081348  0.41490676  0.02957991    -0.73700
Al313      Al  0.35819545  0.46370378  0.02170056     1.49000
C314        C  0.28990938  0.38940798  0.49239085     0.93600
O315        O  0.27440699  0.44978706  0.40010250    -0.79900
O316        O  0.38141844  0.54958073  0.40561739    -0.73500
Al317      Al  0.32416376  0.45019405  0.40053401     1.90100
O318        O  0.30029600  0.51564485  0.41093019    -0.72500
O319        O  0.38647324  0.55409706  0.01392807    -0.72400
O320        O  0.30277827  0.50745309  0.01865199    -0.74400
O321        O  0.40905018  0.51135683  0.02213129    -0.76200
O322        O  0.34141150  0.48115214  0.46192471    -1.12400
O323        O  0.38233340  0.43902195  0.48088985    -0.71600
C324        C  0.38868167  0.43740507  0.42860727     0.99200
C325        C  0.27236740  0.48184292  0.39368737     0.95600
Al326      Al  0.34283777  0.52904903  0.46333120     1.55600
O327        O  0.29634860  0.39793197  0.44034420    -0.76200
C328        C  0.41437326  0.54677242  0.02680643     0.99700
C329        C  0.37613534  0.53334185  0.35741112     0.94600
O330        O  0.34987666  0.49613745  0.34880698    -0.81500
O331        O  0.52575202  0.66880165  0.09166389    -0.81000
C332        C  0.51743784  0.70127127  0.31523173     0.98400
O333        O  0.50775726  0.70881177  0.26798831    -0.70100
O334        O  0.50885981  0.72071520  0.15950088    -0.73700
Al335      Al  0.49086612  0.67343233  0.20638646     1.49000
C336        C  0.54357162  0.74822899  0.14480062     0.93600
O337        O  0.61906013  0.71410808  0.19157567    -0.79900
O338        O  0.57477162  0.62628696  0.22327581    -0.73500
Al339      Al  0.56943444  0.69025099  0.14707895     1.90100
O340        O  0.59798696  0.69897478  0.27894787    -0.72500
O341        O  0.50055021  0.60031331  0.26032458    -0.72400
O342        O  0.52632193  0.67315199  0.32121072    -0.78000
O343        O  0.46074255  0.62644199  0.25328365    -0.76200
O344        O  0.53666097  0.67167745  0.20627874    -1.12400
O345        O  0.47109394  0.63831585  0.14478061    -0.71600
C346        C  0.48837513  0.64346870  0.09786114     0.99200
C347        C  0.62597350  0.71809018  0.24430030     0.95600
Al348      Al  0.54883441  0.65122399  0.26582674     1.55600
O349        O  0.57331367  0.74252726  0.14945015    -0.76200
C350        C  0.46630112  0.59710623  0.26627843     0.99700
C351        C  0.57825437  0.62165867  0.17098621     0.94600
O352        O  0.57006524  0.64108409  0.13555839    -0.81500
O353        O  0.66873302  0.51993415  0.16137453    -0.81000
C354        C  0.70335422  0.50744378  0.43908399     0.98400
O355        O  0.70701381  0.49530413  0.48688681    -0.70100
O356        O  0.71748555  0.49712261  0.09903257    -0.73700
Al357      Al  0.67199117  0.48070089  0.04935639     1.49000
C358        C  0.74638939  0.53188675  0.11205969     0.93600
O359        O  0.72026269  0.61232599  0.06054275    -0.79900
O360        O  0.63145841  0.56926814  0.02522297    -0.73500
Al361      Al  0.69330456  0.56292359  0.10515315     1.90100
O362        O  0.70582442  0.59303109  0.47201053    -0.72500
O363        O  0.60498671  0.49833933  0.48545711    -0.72400
O364        O  0.67858258  0.52034501  0.43066436    -0.78000
O365        O  0.62583708  0.45091117  0.00013960    -0.76200
O366        O  0.67400571  0.52893902  0.04641671    -1.12400
O367        O  0.63542252  0.46426478  0.10940167    -0.71600
C368        C  0.64068557  0.48319212  0.15536225     0.99200
C369        C  0.72453699  0.61896706  0.00797525     0.95600
Al370      Al  0.65690158  0.54495798  0.48338115     1.55600
O371        O  0.74315749  0.56315956  0.10523981    -0.76200
C372        C  0.59824510  0.46231143  0.48123629     0.99700
C373        C  0.62713115  0.57430037  0.07719446     0.94600
O374        O  0.64669780  0.56735211  0.11369015    -0.81500
O375        O  0.82328413  0.81270275  0.48900898    -0.81000
C376        C  0.82519974  0.85331980  0.26642404     0.98400
O377        O  0.83786326  0.87086986  0.31325948    -0.70100
O378        O  0.83833207  0.88127286  0.42242072    -0.73700
Al379      Al  0.85566119  0.85183379  0.37353659     1.49000
C380        C  0.80368032  0.87388576  0.43832997     0.93600
O381        O  0.72702004  0.76436223  0.39394089    -0.79900
O382        O  0.77084657  0.72106088  0.35665942    -0.73500
Al383      Al  0.77823120  0.79048214  0.43536814     1.90100
O384        O  0.74588711  0.77073682  0.30560299    -0.72500
O385        O  0.84295595  0.76881843  0.31465379    -0.72400
O386        O  0.81540160  0.81610440  0.25945689    -0.78000
O387        O  0.88492815  0.83414842  0.32463375    -0.76200
O388        O  0.80950976  0.80449923  0.37447900    -1.12400
O389        O  0.87688064  0.83673574  0.43403271    -0.71600
C390        C  0.86065700  0.82493362  0.48158606     0.99200
C391        C  0.71880082  0.76195044  0.34170366     0.95600
Al392      Al  0.79510215  0.77185959  0.31423909     1.55600
O393        O  0.77409905  0.83841448  0.43448759    -0.76200
C394        C  0.87790629  0.79881218  0.31046617     0.99700
C395        C  0.76951754  0.71364575  0.40895269     0.94600
O396        O  0.77838330  0.74144209  0.44463766    -0.81500
C397        C  0.75137562  0.66297937  0.48519963    -0.15600
C398        C  0.75445754  0.67156044  0.42938254    -0.30800
H399        H  0.76529840  0.68503144  0.01759985     0.13400
H400        H  0.74159963  0.64699217  0.39850249     0.14000
C401        C  0.66772219  0.74305759  0.26589166    -0.15600
C402        C  0.67675853  0.74611852  0.32168608    -0.30800
H403        H  0.69184267  0.75596262  0.23494527     0.13400
H404        H  0.65272564  0.73346829  0.35277595     0.14000
C405        C  0.59494899  0.59558534  0.15120184    -0.15600
C406        C  0.60093154  0.59102268  0.09586810    -0.30800
H407        H  0.60610180  0.58308392  0.18310828     0.13400
H408        H  0.58936500  0.60301016  0.06383999     0.14000
C409        C  0.39988470  0.55956296  0.31092522    -0.15600
C410        C  0.43399770  0.56061610  0.29407915    -0.30800
H411        H  0.39433995  0.58431149  0.30004897     0.13400
H412        H  0.44074094  0.53728028  0.30840271     0.14000
C413        C  0.45201823  0.57826794  0.05263180    -0.15600
C414        C  0.46360538  0.61805119  0.05122418    -0.30800
H415        H  0.46837350  0.56792115  0.07924356     0.13400
H416        H  0.44751015  0.62912284  0.02553182     0.14000
C417        C  0.26218045  0.33859045  0.07161908    -0.15600
C418        C  0.26646616  0.34563036  0.01534587    -0.30800
H419        H  0.27258489  0.36387826  0.10123490     0.13400
H420        H  0.25511953  0.32042119  0.98550382     0.14000
C421        C  0.54926213  0.39258970  0.44552930    -0.15600
C422        C  0.56153810  0.43255732  0.45032349    -0.30800
H423        H  0.56364591  0.37906532  0.47001236     0.13400
H424        H  0.54648830  0.44506520  0.42501159     0.14000
C425        C  0.57452028  0.45206338  0.19870363    -0.15600
C426        C  0.61330032  0.46098052  0.20174957    -0.30800
H427        H  0.56605299  0.46883192  0.16977523     0.13400
H428        H  0.62221316  0.44435262  0.23018680     0.14000
C429        C  0.32972890  0.25268988  0.18386444    -0.15600
C430        C  0.34000987  0.26319968  0.23875278    -0.30800
H431        H  0.35295949  0.25960984  0.15239268     0.13400
H432        H  0.31651201  0.25483567  0.27028691     0.14000
C433        C  0.41951476  0.41771843  0.35183116    -0.15600
C434        C  0.41419220  0.42068461  0.40787692    -0.30800
H435        H  0.40916932  0.43207136  0.32161222     0.13400
H436        H  0.42472543  0.40660825  0.43825676     0.14000
C437        C  0.58931570  0.99934515  0.40335816    -0.15600
C438        C  0.59422226  0.00703210  0.34694773    -0.30800
H439        H  0.60095478  0.02432758  0.43356714     0.13400
H440        H  0.58216701  0.98186899  0.31701184     0.14000
C441        C  0.51904232  0.79460378  0.11304583    -0.15600
C442        C  0.54891973  0.78546424  0.11650344    -0.30800
H443        H  0.49134515  0.77711321  0.13680626     0.13400
H444        H  0.57616008  0.80278907  0.09164965     0.14000
C445        C  0.51843573  0.72665457  0.36264583    -0.15600
C446        C  0.54513512  0.76659627  0.36042162    -0.30800
H447        H  0.49303260  0.71483954  0.39154665     0.13400
H448        H  0.57053308  0.77740305  0.33146369     0.14000
C449        C  0.82270735  0.94343726  0.97216819    -0.15600
C450        C  0.79783741  0.90553084  0.46665654    -0.30800
H451        H  0.84631457  0.95606995  0.94048169     0.13400
H452        H  0.76879208  0.89602944  0.48658963     0.14000
C453        C  0.79337456  0.88744142  0.21931715    -0.15600
C454        C  0.82301714  0.87780189  0.22002080    -0.30800
H455        H  0.76692927  0.87057541  0.24582464     0.13400
H456        H  0.84981186  0.89463667  0.19423447     0.14000
C457        C  0.74920456  0.07944035  0.18033500    -0.15600
C458        C  0.74438555  0.08526485  0.23583697    -0.30800
H459        H  0.73817669  0.09199896  0.14838093     0.13400
H460        H  0.75611566  0.07355688  0.26800024     0.14000
C461        C  0.66551995  0.92579416  0.00672007    -0.15600
C462        C  0.67445790  0.92801044  0.06266898    -0.30800
H463        H  0.68962410  0.93971914  0.97586540     0.13400
H464        H  0.65017891  0.91360413  0.09319146     0.14000
C465        C  0.54792029  0.11116401  0.17748292    -0.15600
C466        C  0.52704436  0.13079224  0.18568475    -0.30800
H467        H  0.54164171  0.09159371  0.14068706     0.13400
H468        H  0.53144488  0.14879100  0.22361944     0.14000
C469        C  0.55807411  0.12470875  0.43116075    -0.15600
C470        C  0.59775370  0.15171456  0.43088869    -0.30800
H471        H  0.54584778  0.09964920  0.40093762     0.13400
H472        H  0.61086451  0.17621116  0.46185709     0.14000
C473        C  0.49659611  0.22500294  0.38236928    -0.15600
C474        C  0.46411692  0.22687981  0.36574259    -0.30800
H475        H  0.52675810  0.25040916  0.37502926     0.13400
H476        H  0.43404676  0.20294141  0.37752460     0.14000
C477        C  0.49528573  0.25245701  0.14036936    -0.15600
C478        C  0.47776688  0.27572764  0.13676360    -0.30800
H479        H  0.51945285  0.26048037  0.17069786     0.13400
H480        H  0.45549094  0.26997626  0.10432587     0.14000
C481        C  0.32382792  0.09770413  0.42783396    -0.15600
C482        C  0.33498269  0.10090332  0.48242040    -0.30800
H483        H  0.34660403  0.11063639  0.39497493     0.13400
H484        H  0.31205952  0.08829207  0.51512050     0.14000
C485        C  0.16847627  0.09371206  0.03141863    -0.15600
C486        C  0.16334481  0.06698020  0.51930039    -0.30800
H487        H  0.14313084  0.08410657  0.00267725     0.13400
H488        H  0.13543197  0.06823075  0.51926453     0.14000
C489        C  0.18905563  0.13459582  0.27855765    -0.15600
C490        C  0.16872264  0.09373418  0.27361751    -0.30800
H491        H  0.21256812  0.14919930  0.31017502     0.13400
H492        H  0.14362118  0.07948660  0.24420684     0.14000
C493        C  0.43981790  0.90354669  0.09100051    -0.15600
C494        C  0.43264595  0.87561727  0.05087357    -0.30800
H495        H  0.47010686  0.92907125  0.09742290     0.13400
H496        H  0.40255826  0.84945224  0.04594900     0.14000
C497        C  0.43526062  0.87545757  0.32329750    -0.15600
C498        C  0.46003791  0.86065462  0.30838648    -0.30800
H499        H  0.43495689  0.88464137  0.36668630     0.13400
H500        H  0.46320204  0.85460750  0.26441720     0.14000
C501        C  0.30285990  0.95447136  0.32863205    -0.15600
C502        C  0.26300396  0.94100149  0.33759633    -0.30800
H503        H  0.32512468  0.98460889  0.34357704     0.13400
H504        H  0.24079175  0.91128589  0.32131610     0.14000
C505        C  0.35226248  0.98730031  0.10405851    -0.15600
C506        C  0.38669170  0.00569499  0.07367384    -0.30800
H507        H  0.33279878  0.00071990  0.10696364     0.13400
H508        H  0.40491614  0.99098810  0.06879087     0.14000
C509        C  0.94844193  0.82011781  0.28319220    -0.15600
C510        C  0.90912791  0.79215442  0.28358727    -0.30800
H511        H  0.95953018  0.84817521  0.30741392     0.13400
H512        H  0.89871312  0.76471029  0.25800265     0.14000
C513        C  0.89321309  0.79356204  0.04336512    -0.15600
C514        C  0.88704679  0.82692123  0.52816719    -0.30800
H515        H  0.87056498  0.76376075  0.02771065     0.13400
H516        H  0.91037227  0.85707293  0.54145125     0.14000
C517        C  0.06531929  0.87151242  0.97767512    -0.15600
C518        C  0.10151733  0.89327367  0.48708391    -0.30800
H519        H  0.04872767  0.87661603  0.43872982     0.13400
H520        H  0.11350191  0.88665981  0.52465368     0.14000
C521        C  0.11252343  0.89498551  0.22885371    -0.15600
C522        C  0.12588854  0.93508799  0.22532285    -0.30800
H523        H  0.12414183  0.88357066  0.26168193     0.13400
H524        H  0.11577957  0.94723044  0.19157405     0.14000
C525        C  0.07735728  0.74104986  0.06842998    -0.15600
C526        C  0.08426601  0.74069895  0.01209435    -0.30800
H527        H  0.08855299  0.72693115  0.09772973     0.13400
H528        H  0.07405014  0.75571073  0.98280052     0.14000
C529        C  0.22309298  0.74315507  0.09360468    -0.15600
C530        C  0.25128565  0.78155111  0.07921518    -0.30800
H531        H  0.21823308  0.73467967  0.13779144     0.13400
H532        H  0.25379647  0.79130837  0.03570114     0.14000
C533        C  0.22111462  0.77107200  0.33175621    -0.15600
C534        C  0.25716702  0.77763218  0.31429013    -0.30800
H535        H  0.20886051  0.78982987  0.31634621     0.13400
H536        H  0.26949906  0.75920644  0.33076927     0.14000
C537        C  0.92583332  0.65176339  0.23806140    -0.15600
C538        C  0.92960663  0.66178129  0.18238087    -0.30800
H539        H  0.93647920  0.67584838  0.26961948     0.13400
H540        H  0.91829162  0.63776057  0.15069420     0.14000
C541        C  0.79007418  0.50486475  0.14460475    -0.15600
C542        C  0.78266991  0.53602247  0.14049498    -0.30800
H543        H  0.77141499  0.47651549  0.12196268     0.13400
H544        H  0.80130719  0.56397499  0.16408365     0.14000
C545        C  0.76864071  0.53316884  0.39395291    -0.15600
C546        C  0.72891576  0.50609463  0.39355071    -0.30800
H547        H  0.77987842  0.55999625  0.42101983     0.13400
H548        H  0.71693206  0.47914004  0.36677751     0.14000
C549        C  0.99710637  0.56745973  0.35123742    -0.15600
C550        C  0.00662323  0.57514700  0.40721695    -0.30800
H551        H  0.02107794  0.57719379  0.32013203     0.13400
H552        H  0.98282202  0.56446364  0.43867683     0.14000
C553        C  0.75722379  0.24913295  0.37362141    -0.15600
C554        C  0.79192114  0.25095883  0.38803704    -0.30800
H555        H  0.75027351  0.27227997  0.38860570     0.13400
H556        H  0.79945918  0.22867374  0.37114605     0.14000
C557        C  0.76334276  0.23405832  0.14849587    -0.15600
C558        C  0.72527187  0.20788599  0.13090971    -0.30800
H559        H  0.76979431  0.23589247  0.19337158     0.13400
H560        H  0.71843168  0.20258415  0.08623643     0.14000
C561        C  0.88376553  0.40030298  0.17621329    -0.15600
C562        C  0.85390616  0.40681058  0.19393854    -0.30800
H563        H  0.91472271  0.42048660  0.18941542     0.13400
H564        H  0.82302937  0.38482888  0.18217703     0.14000
C565        C  0.87650799  0.42131629  0.42336346    -0.15600
C566        C  0.86028890  0.44449716  0.44036644    -0.30800
H567        H  0.88700784  0.42385932  0.38016232     0.13400
H568        H  0.85135894  0.44422127  0.48390836     0.14000
C569        C  0.87239490  0.20747537  0.49518854    -0.15600
C570        C  0.88223443  0.19582276  0.44670242    -0.30800
H571        H  0.84321541  0.18602029  0.51303322     0.13400
H572        H  0.85936734  0.16709181  0.42851954     0.14000
C573        C  0.10921030  0.23415707  0.24358655    -0.15600
C574        C  0.06928670  0.21453980  0.23387434    -0.30800
H575        H  0.12111422  0.25139594  0.28245298     0.13400
H576        H  0.05726251  0.19888796  0.19402127     0.14000
C577        C  0.10733032  0.22035968  0.49472243    -0.15600
C578        C  0.12753974  0.21085175  0.98818986    -0.30800
H579        H  0.11432370  0.23951337  0.53208287     0.13400
H580        H  0.12516974  0.19577970  0.94804010     0.14000
C581        C  0.91034607  0.11182618  0.04838322    -0.15600
C582        C  0.94096740  0.10653942  0.52113022    -0.30800
H583        H  0.90702700  0.13877595  0.04508853     0.13400
H584        H  0.94172989  0.07810020  0.52068812     0.14000
C585        C  0.87505465  0.06280442  0.27876389    -0.15600
C586        C  0.91565654  0.08394859  0.27595798    -0.30800
H587        H  0.85909694  0.07018961  0.31054445     0.13400
H588        H  0.93121280  0.07435950  0.24636625     0.14000
C589        C  0.00666125  0.38367629  0.06195112    -0.15600
C590        C  0.02808575  0.36940604  0.08921513    -0.30800
H591        H  0.01841194  0.41634670  0.05843358     0.13400
H592        H  0.01732537  0.33680304  0.09002344     0.14000
C593        C  0.03762467  0.34715705  0.31072975    -0.15600
C594        C  0.05001570  0.33023678  0.34985243    -0.30800
H595        H  0.00586087  0.33247215  0.29925360     0.13400
H596        H  0.08123793  0.34605484  0.36399060     0.14000
C597        C  0.21801020  0.45091135  0.32503443    -0.15600
C598        C  0.23953715  0.48130473  0.36124241    -0.30800
H599        H  0.22153427  0.42400408  0.32406764     0.13400
H600        H  0.23710270  0.50882523  0.36096103     0.14000
C601        C  0.23267460  0.46420359  0.09200733    -0.15600
C602        C  0.27223233  0.48320676  0.10698606    -0.30800
H603        H  0.22382354  0.45198059  0.04959755     0.13400
H604        H  0.28099153  0.49227304  0.15052050     0.14000
C605        C  0.12564385  0.54787987  0.09528940    -0.15600
C606        C  0.15634718  0.57321232  0.06284491    -0.30800
H607        H  0.09700847  0.54771289  0.09334759     0.13400
H608        H  0.18549980  0.57462036  0.06603273     0.14000
C609        C  0.12831151  0.55403947  0.32396418    -0.15600
C610        C  0.14181853  0.59264882  0.30598947    -0.30800
H611        H  0.11847502  0.54580455  0.36725208     0.13400
H612        H  0.14839875  0.60011896  0.26169937     0.14000
O613        O  0.06459214  0.43265845  0.64292652    -0.81000
C614        C  0.19319533  0.45542140  0.78140675     0.98400
O615        O  0.17680658  0.42765242  0.74440455    -0.70100
O616        O  0.09933124  0.38717005  0.75907058    -0.73700
Al617      Al  0.13188375  0.41293539  0.69533299     1.49000
C618        C  0.06625377  0.38478955  0.77266272     0.93600
O619        O  0.09876116  0.48803287  0.78342318    -0.79900
O620        O  0.16582441  0.52607455  0.64450272    -0.73500
Al621      Al  0.08470601  0.45975643  0.71229646     1.90100
O622        O  0.15860520  0.53498774  0.75639267    -0.72500
O623        O  0.21004446  0.49056675  0.66849918    -0.72400
O624        O  0.19107333  0.48797891  0.77889166    -0.78000
O625        O  0.16579683  0.43310455  0.62954844    -0.76200
O626        O  0.13097534  0.45915605  0.70638167    -1.12400
O627        O  0.08584172  0.38823181  0.64591087    -0.71600
C628        C  0.06270013  0.40009639  0.62594858     0.99200
C629        C  0.12840980  0.52365383  0.78782627     0.95600
Al630      Al  0.17745190  0.50592589  0.71171223     1.55600
O631        O  0.05618247  0.40962449  0.75343124    -0.76200
C632        C  0.20117577  0.46329625  0.63180596     0.99700
C633        C  0.13379565  0.52824852  0.63831945     0.94600
O634        O  0.10359111  0.50901708  0.67035297    -0.81500
O635        O  0.97988501  0.18005923  0.99620376    -0.81000
C636        C  0.04197582  0.20264050  0.78099954     0.98400
O637        O  0.05104879  0.19526341  0.82898004    -0.70100
O638        O  0.05309969  0.18685588  0.93770997    -0.73700
Al639      Al  0.01234780  0.16398735  0.88336699     1.49000
C640        C  0.07039466  0.22012492  0.96340050     0.93600
O641        O  0.02227861  0.27978756  0.91294972    -0.79900
O642        O  0.92851054  0.20910334  0.86507933    -0.73500
Al643      Al  0.00083799  0.22849378  0.95054377     1.90100
O644        O  0.00435042  0.26302535  0.82419560    -0.72500
O645        O  0.93212935  0.14856564  0.81993164    -0.72400
O646        O  0.00880795  0.20249232  0.77291823    -0.78000
O647        O  0.97633302  0.12833871  0.82688729    -0.76200
O648        O  0.99456126  0.19989246  0.88691122    -1.12400
O649        O  0.97527320  0.13139033  0.93790554    -0.71600
C650        C  0.96724184  0.14268520  0.98409758     0.99200
C651        C  0.02323278  0.28948111  0.86184927     0.95600
Al652      Al  0.97056579  0.20570845  0.82582289     1.55600
O653        O  0.05564925  0.24330395  0.96329242    -0.76200
C654        C  0.94202389  0.12169125  0.81202534     0.99700
C655        C  0.92137650  0.21237683  0.91607440     0.94600
O656        O  0.94769807  0.22021316  0.95292872    -0.81500
O657        O  0.90132488  0.35621689  0.63058605    -0.81000
C658        C  0.82057694  0.28123886  0.92715624     0.98400
O659        O  0.80883383  0.29955283  0.96087120    -0.70100
O660        O  0.79486276  0.27304867  0.56729892    -0.73700
Al661      Al  0.82926698  0.32530258  0.53488057     1.49000
C662        C  0.80085695  0.26263665  0.61485484     0.93600
O663        O  0.87575055  0.25444835  0.56345072    -0.79900
O664        O  0.94928861  0.36600787  0.50300833    -0.73500
Al665      Al  0.88835447  0.30536922  0.59592494     1.90100
O666        O  0.91110948  0.28086743  0.98441649    -0.72500
O667        O  0.89352898  0.36916951  0.93961867    -0.72400
O668        O  0.85574672  0.28650518  0.92907562    -0.78000
O669        O  0.85567400  0.37777639  0.50259211    -0.76200
O670        O  0.87238250  0.31886029  0.53314984    -1.12400
O671        O  0.84395271  0.35375528  0.60688879    -0.71600
C672        C  0.87683804  0.36970801  0.63501341     0.99200
C673        C  0.88899236  0.24970494  0.51658889     0.95600
Al674      Al  0.90029564  0.32532272  0.96943145     1.55600
O675        O  0.83644871  0.27820880  0.63361537    -0.76200
C676        C  0.87691616  0.38893484  0.95769414     0.99700
C677        C  0.96541115  0.35877300  0.54443365     0.94600
O678        O  0.94447701  0.32874527  0.57599833    -0.81500
O679        O  0.90558353  0.58563937  0.72560537    -0.81000
C680        C  0.85543588  0.47079693  0.89803721     0.98400
O681        O  0.86459330  0.50767680  0.90845234    -0.70100
O682        O  0.93333752  0.55581310  0.86247889    -0.73700
Al683      Al  0.88355817  0.55360469  0.85560280     1.49000
C684        C  0.95927368  0.56004003  0.82670011     0.93600
O685        O  0.89555151  0.47997606  0.72977326    -0.79900
O686        O  0.79971743  0.49569594  0.74010392    -0.73500
Al687      Al  0.89841950  0.53273965  0.73339505     1.90100
O688        O  0.83048993  0.44550693  0.74209509    -0.72500
O689        O  0.79367052  0.49235064  0.85156070    -0.72400
O690        O  0.83922034  0.45392063  0.85175285    -0.78000
O691        O  0.83559936  0.55729452  0.85909187    -0.76200
O692        O  0.86787450  0.52130753  0.79495775    -1.12400
O693        O  0.90660361  0.60446372  0.81345352    -0.71600
C694        C  0.91151119  0.61279689  0.76125901     0.99200
C695        C  0.86220101  0.44754868  0.72337787     0.95600
Al696      Al  0.82001238  0.47586043  0.79654080     1.55600
O697        O  0.94992267  0.55349782  0.77461600    -0.76200
C698        C  0.80086936  0.52748987  0.86597876     0.99700
C699        C  0.81541208  0.50651473  0.69170991     0.94600
O700        O  0.85204469  0.51576368  0.68221274    -0.81500
O701        O  0.10231377  0.69069221  0.52148086    -0.81000
C702        C  0.15203772  0.62493245  0.85410772     0.98400
O703        O  0.14344977  0.65295276  0.84252728    -0.70100
O704        O  0.07652971  0.63859295  0.88921708    -0.73700
Al705      Al  0.12813412  0.68420911  0.89353003     1.49000
C706        C  0.05295420  0.61261205  0.92351859     0.93600
O707        O  0.11968131  0.60136166  0.51364763    -0.79900
O708        O  0.20899109  0.71538674  0.49362332    -0.73500
Al709      Al  0.11268603  0.64768409  0.51243018     1.90100
O710        O  0.18454604  0.63462293  0.49975444    -0.72500
O711        O  0.21562715  0.70574635  0.89159264    -0.72400
O712        O  0.16906168  0.62484803  0.90005238    -0.78000
O713        O  0.17806810  0.73395518  0.88600977    -0.76200
O714        O  0.14391389  0.66757784  0.95329881    -1.12400
O715        O  0.10889388  0.71558611  0.93661754    -0.71600
C716        C  0.10036019  0.71506433  0.98852259     0.99200
C717        C  0.15394335  0.60478900  0.52071564     0.95600
Al718      Al  0.19136005  0.66907490  0.95105950     1.55600
O719        O  0.06358363  0.61372204  0.97463677    -0.76200
C720        C  0.21069344  0.73444115  0.87582415     0.99700
C721        C  0.19595979  0.71194388  0.54360978     0.94600
O722        O  0.16158395  0.68200539  0.55794805    -0.81500
O723        O  0.97413886  0.73538931  0.70008644    -0.81000
C724        C  0.03375264  0.84827912  0.52329820     0.98400
O725        O  0.00450389  0.81207979  0.51555857    -0.70100
O726        O  0.02634400  0.76269326  0.55695646    -0.73700
Al727      Al  0.98042058  0.76693235  0.57029767     1.49000
C728        C  0.04807975  0.75636077  0.59022825     0.93600
O729        O  0.07151337  0.83494422  0.68755355    -0.79900
O730        O  0.96639251  0.83187372  0.69024423    -0.73500
Al731      Al  0.02080378  0.78594765  0.68860786     1.90100
O732        O  0.04723202  0.87618708  0.68028320    -0.72500
O733        O  0.95712589  0.83258097  0.58001500    -0.72400
O734        O  0.03954063  0.86560143  0.57069524    -0.78000
O735        O  0.93033317  0.76652353  0.57505099    -0.76200
O736        O  0.00111364  0.79958443  0.62995100    -1.12400
O737        O  0.95475712  0.71604176  0.61314212    -0.71600
C738        C  0.95311169  0.70787455  0.66528554     0.99200
C739        C  0.07496158  0.86945439  0.69580991     0.95600
Al740      Al  0.00247070  0.84750767  0.63007074     1.55600
O741        O  0.04652129  0.76147919  0.64308576    -0.76200
C742        C  0.92746300  0.79801144  0.56808882     0.99700
C743        C  0.97193784  0.82006773  0.73738213     0.94600
O744        O  0.99710193  0.80726536  0.74370452    -0.81500
O745        O  0.28921995  0.90848153  0.74185189    -0.81000
C746        C  0.40594952  0.88538241  0.63939416     0.98400
O747        O  0.41381300  0.91257327  0.67725362    -0.70100
O748        O  0.37854543  0.95617211  0.66758927    -0.73700
Al749      Al  0.37925187  0.92322331  0.72649082     1.49000
C750        C  0.35264990  0.95407114  0.63291223     0.93600
O751        O  0.28408861  0.84712759  0.61264148    -0.79900
O752        O  0.30094720  0.81276205  0.76211066    -0.73500
Al753      Al  0.29087497  0.87785978  0.68032612     1.90100
O754        O  0.29215290  0.79999516  0.65133989    -0.72500
O755        O  0.38242707  0.84509235  0.74800906    -0.72400
O756        O  0.37272301  0.85160578  0.63847808    -0.78000
O757        O  0.38901633  0.89855879  0.79136268    -0.76200
O758        O  0.33573137  0.87835606  0.70248642    -1.12400
O759        O  0.35033520  0.94034685  0.77719777    -0.71600
C760        C  0.31385308  0.93225724  0.77791652     0.99200
C761        C  0.27678652  0.81088538  0.61346901     0.95600
Al762      Al  0.33694758  0.83179391  0.70025113     1.55600
O763        O  0.31698522  0.92479607  0.63376570    -0.76200
C764        C  0.39771329  0.87049416  0.78723049     0.99700
C765        C  0.26686678  0.81172176  0.76207653     0.94600
O766        O  0.25790124  0.83071462  0.72572673    -0.81500
O767        O  0.19404138  0.01630266  0.99851911    -0.81000
C768        C  0.14025307  0.96462517  0.78243649     0.98400
O769        O  0.12522568  0.95743425  0.83147460    -0.70100
O770        O  0.12209898  0.95299964  0.94208679    -0.73700
Al771      Al  0.14266396  0.99676645  0.89005921     1.49000
C772        C  0.13406388  0.92889130  0.95695222     0.93600
O773        O  0.24127136  0.97038144  0.89807328    -0.79900
O774        O  0.27179087  0.06294537  0.85762428    -0.73500
Al775      Al  0.21485997  0.99349699  0.94323586     1.90100
O776        O  0.23442152  0.98617844  0.81129078    -0.72500
O777        O  0.21159503  0.07334182  0.82312680    -0.72400
O778        O  0.17490317  0.99507759  0.77259679    -0.78000
O779        O  0.14702256  0.03727967  0.83862732    -0.76200
O780        O  0.19320710  0.00574984  0.88487588    -1.12400
O781        O  0.15823280  0.03626872  0.94826273    -0.71600
C782        C  0.17892279  0.03940387  0.99170852     0.99200
C783        C  0.24503861  0.96782044  0.84539669     0.95600
Al784      Al  0.22090982  0.02758725  0.82168508     1.55600
O785        O  0.17064920  0.93883848  0.95098315    -0.76200
C786        C  0.17672108  0.06912717  0.82031889     0.99700
C787        C  0.28348296  0.06846961  0.90823383     0.94600
O788        O  0.26147954  0.04492714  0.94615469    -0.81500
O789        O  0.47225608  0.15809056  0.92099487    -0.81000
C790        C  0.51246231  0.15331740  0.64020565     0.98400
O791        O  0.53008023  0.16480833  0.59357511    -0.70100
O792        O  0.54042156  0.16643744  0.48534195    -0.73700
Al793      Al  0.51545889  0.18755420  0.53476520     1.49000
C794        C  0.52555173  0.12279413  0.95682359     0.93600
O795        O  0.41920251  0.06238338  0.50797705    -0.79900
O796        O  0.38449013  0.11237754  0.55105779    -0.73500
Al797      Al  0.44615997  0.10963619  0.96711611     1.90100
O798        O  0.42808298  0.07994198  0.59758767    -0.72500
O799        O  0.43663826  0.18329475  0.59364845    -0.72400
O800        O  0.47734907  0.14837813  0.64753229    -0.78000
O801        O  0.50224663  0.22021455  0.58464395    -0.76200
O802        O  0.46599011  0.14450233  0.53185339    -1.12400
O803        O  0.51155919  0.20802576  0.98059625    -0.71600
C804        C  0.49458147  0.19580423  0.93310007     0.99200
C805        C  0.41738399  0.05329122  0.55956359     0.95600
Al806      Al  0.43422352  0.13210335  0.59229578     1.55600
O807        O  0.48868725  0.09720222  0.95790117    -0.76200
C808        C  0.46860007  0.21696896  0.59829705     0.99700
C809        C  0.37659796  0.11299449  0.49950811     0.94600
O810        O  0.39987268  0.11467710  0.96135675    -0.81500
O811        O  0.74416515  0.97100556  0.55536440    -0.81000
C812        C  0.85224974  0.03326784  0.73756753     0.98400
O813        O  0.81488618  0.00783688  0.74421836    -0.70100
O814        O  0.76935892  0.03052241  0.69507435    -0.73700
Al815      Al  0.77158933  0.98209884  0.68856697     1.49000
C816        C  0.76342874  0.05040398  0.65794360     0.93600
O817        O  0.84248032  0.06887495  0.57364223    -0.79900
O818        O  0.83467603  0.95993673  0.57214101    -0.73500
Al819      Al  0.79382121  0.01832145  0.56816089     1.90100
O820        O  0.88150326  0.04214625  0.58389129    -0.72500
O821        O  0.83301992  0.95172227  0.68184164    -0.72400
O822        O  0.87014845  0.03419140  0.69234303    -0.78000
O823        O  0.76880696  0.93030346  0.69263767    -0.76200
O824        O  0.80492292  0.99884524  0.62981192    -1.12400
O825        O  0.72256423  0.95532672  0.64258915    -0.71600
C826        C  0.71603255  0.95140582  0.58969129     0.99200
C827        C  0.87668000  0.07171424  0.57027574     0.95600
Al828      Al  0.85084097  0.99702649  0.63249585     1.55600
O829        O  0.76824781  0.04511246  0.60646241    -0.76200
C830        C  0.79856595  0.92469643  0.69755142     0.99700
C831        C  0.82597012  0.96699291  0.52380089     0.94600
O832        O  0.81630580  0.99441658  0.51603772    -0.81500
O833        O  0.59644282  0.89953340  0.52650116    -0.81000
C834        C  0.47835489  0.84982672  0.85487895     0.98400
O835        O  0.51452508  0.85832731  0.84369954    -0.70100
O836        O  0.56153360  0.92921253  0.88571801    -0.73700
Al837      Al  0.56166419  0.88048274  0.89489927     1.49000
C838        C  0.57281159  0.95789075  0.92031385     0.93600
O839        O  0.49710336  0.89772558  0.51959038    -0.79900
O840        O  0.50384453  0.79668454  0.51251885    -0.73500
Al841      Al  0.54637447  0.89669079  0.51803323     1.90100
O842        O  0.45781418  0.83229740  0.50622661    -0.72500
O843        O  0.50169562  0.78984952  0.90885313    -0.72400
O844        O  0.46338638  0.83628050  0.90257885    -0.78000
O845        O  0.56564446  0.83273771  0.89512106    -0.76200
O846        O  0.53219434  0.86715030  0.95714102    -1.12400
O847        O  0.61417226  0.90674360  0.93472281    -0.71600
C848        C  0.62317703  0.90945449  0.98691855     0.99200
C849        C  0.46328656  0.86594734  0.52451872     0.95600
Al850      Al  0.48626160  0.81991993  0.95992037     1.55600
O851        O  0.57240790  0.95123482  0.97284938    -0.76200
C852        C  0.53622639  0.79721045  0.89243675     0.99700
C853        C  0.51518064  0.81280127  0.56065376     0.94600
O854        O  0.52667497  0.85036940  0.56951209    -0.81500
O855        O  0.69194321  0.10030275  0.71240146    -0.81000
C856        C  0.62148540  0.14732627  0.88047647     0.98400
O857        O  0.65287962  0.14437789  0.88968561    -0.70100
O858        O  0.64048180  0.07560241  0.84967907    -0.73700
Al859      Al  0.68256543  0.12841748  0.83822072     1.49000
C860        C  0.61749342  0.04758448  0.81679784     0.93600
O861        O  0.59259623  0.09859730  0.71292802    -0.79900
O862        O  0.69455463  0.20366595  0.71943867    -0.73500
Al863      Al  0.64444839  0.10301326  0.71844796     1.90100
O864        O  0.61251821  0.16299835  0.72183525    -0.72500
O865        O  0.69426454  0.21307395  0.83013059    -0.72400
O866        O  0.61465001  0.15758970  0.83267152    -0.78000
O867        O  0.72876637  0.18138122  0.83545272    -0.76200
O868        O  0.66042388  0.13661222  0.77734757    -1.12400
O869        O  0.71443276  0.10921007  0.79882168    -0.71600
C870        C  0.71609662  0.10017056  0.74790788     0.99200
C871        C  0.58630050  0.12792956  0.70668121     0.95600
Al872      Al  0.65443323  0.18051637  0.77586196     1.55600
O873        O  0.61780783  0.05377621  0.76409134    -0.76200
C874        C  0.72577662  0.21274814  0.84411042     0.99700
C875        C  0.69586455  0.18617559  0.67420956     0.94600
O876        O  0.67069744  0.14845041  0.66475962    -0.81500
O877        O  0.44508758  0.36850228  0.86375089    -0.81000
C878        C  0.49882866  0.31376946  0.67852133     0.98400
O879        O  0.48626322  0.33921950  0.67390510    -0.70100
O880        O  0.41546123  0.31212559  0.71852613    -0.73700
Al881      Al  0.46440953  0.36065150  0.73080141     1.49000
C882        C  0.38810776  0.29272457  0.75377376     0.93600
O883        O  0.44352560  0.26889376  0.83946028    -0.79900
O884        O  0.54413189  0.37579650  0.85193884    -0.73500
Al885      Al  0.44626901  0.32016246  0.84835900     1.90100
O886        O  0.50881247  0.29385250  0.83209608    -0.72500
O887        O  0.55445194  0.38987756  0.74404753    -0.72400
O888        O  0.51144674  0.30824718  0.72472727    -0.78000
O889        O  0.51183491  0.41233672  0.73401609    -0.76200
O890        O  0.47868988  0.34107862  0.78903900    -1.12400
O891        O  0.43904804  0.38468238  0.77686519    -0.71600
C892        C  0.43654036  0.38854826  0.82975450     0.99200
C893        C  0.47409718  0.26457428  0.84310010     0.95600
Al894      Al  0.52583037  0.34194046  0.78823986     1.55600
O895        O  0.39595131  0.29694857  0.80606981    -0.76200
C896        C  0.54704107  0.41773185  0.73027368     0.99700
C897        C  0.52711082  0.36700445  0.89932734     0.94600
O898        O  0.49010925  0.33997576  0.90411146    -0.81500
O899        O  0.26903169  0.24611961  0.69646706    -0.81000
C900        C  0.14997121  0.19421437  0.53085817     0.98400
O901        O  0.18451470  0.19793093  0.52100817    -0.70100
O902        O  0.23770197  0.26918379  0.55842255    -0.73700
Al903      Al  0.23087686  0.21723743  0.57168037     1.49000
C904        C  0.24373485  0.29766987  0.59169139     0.93600
O905        O  0.17231577  0.24858530  0.69873954    -0.79900
O906        O  0.16921263  0.14347874  0.69636313    -0.73500
Al907      Al  0.21930070  0.24383826  0.69161482     1.90100
O908        O  0.12759628  0.18457838  0.68961381    -0.72500
O909        O  0.16269476  0.13064817  0.58581937    -0.72400
O910        O  0.13417020  0.18487539  0.57922348    -0.78000
O911        O  0.22808899  0.16548508  0.57664622    -0.76200
O912        O  0.20136921  0.20909563  0.63385748    -1.12400
O913        O  0.28293750  0.23961914  0.60915406    -0.71600
C914        C  0.29355358  0.24770269  0.66019606     0.99200
C915        C  0.13721989  0.21989159  0.70645926     0.95600
Al916      Al  0.15255601  0.16473461  0.63744182     1.55600
O917        O  0.24006048  0.29204032  0.64462606    -0.76200
C918        C  0.19551369  0.13239054  0.57161004     0.99700
C919        C  0.18810246  0.16196384  0.74063434     0.94600
O920        O  0.20244336  0.20031344  0.74688162    -0.81500
O921        O  0.37034063  0.44299581  0.89193508    -0.81000
C922        C  0.30411188  0.49454182  0.56566029     0.98400
O923        O  0.33201582  0.48613914  0.57577300    -0.70100
O924        O  0.30796307  0.41644706  0.52892213    -0.73700
Al925      Al  0.35654583  0.46482318  0.52260823     1.49000
C926        C  0.29164495  0.38751260  0.99397600     0.93600
O927        O  0.27348224  0.44648558  0.90005771    -0.79900
O928        O  0.38067634  0.54617299  0.90351397    -0.73500
Al929      Al  0.32349115  0.44666581  0.90039828     1.90100
O930        O  0.29974831  0.51236870  0.91020675    -0.72500
O931        O  0.38680134  0.55585789  0.51611016    -0.72400
O932        O  0.30299988  0.51031616  0.51957573    -0.74400
O933        O  0.40782998  0.51175799  0.52485479    -0.76200
O934        O  0.34153591  0.47850891  0.96105352    -1.12400
O935        O  0.38455128  0.43850270  0.98015107    -0.71600
C936        C  0.38945310  0.43498796  0.92788690     0.99200
C937        C  0.27136505  0.47857970  0.89413497     0.95600
Al938      Al  0.34242443  0.52616166  0.96184213     1.55600
O939        O  0.29614273  0.39528651  0.94165437    -0.76200
C940        C  0.41371560  0.54736835  0.53039396     0.99700
C941        C  0.37545893  0.52921834  0.85576831     0.94600
O942        O  0.34894821  0.49200612  0.84779306    -0.81500
O943        O  0.52668322  0.67080601  0.59644897    -0.81000
C944        C  0.51634095  0.70031079  0.81999314     0.98400
O945        O  0.50562477  0.70673412  0.77274636    -0.70100
O946        O  0.50703487  0.71846620  0.66404764    -0.73700
Al947      Al  0.49050988  0.67152846  0.71102221     1.49000
C948        C  0.54148076  0.74754316  0.65132001     0.93600
O949        O  0.62008937  0.71695389  0.69672613    -0.79900
O950        O  0.57702531  0.62827469  0.72640650    -0.73500
Al951      Al  0.57034870  0.69253978  0.65245238     1.90100
O952        O  0.59914359  0.70057227  0.78376619    -0.72500
O953        O  0.50298445  0.60055374  0.76563810    -0.72400
O954        O  0.52728185  0.67363185  0.82608200    -0.78000
O955        O  0.46148568  0.62449801  0.75779083    -0.76200
O956        O  0.53743677  0.67211738  0.71134431    -1.12400
O957        O  0.47258974  0.63624478  0.64945661    -0.71600
C958        C  0.48994800  0.64325658  0.60232992     0.99200
C959        C  0.62705908  0.72040133  0.74939201     0.95600
Al960      Al  0.55050153  0.65224959  0.77045816     1.55600
O961        O  0.57228472  0.74383242  0.65758109    -0.76200
C962        C  0.46819072  0.59603066  0.77113765     0.99700
C963        C  0.58081617  0.62460597  0.67378790     0.94600
O964        O  0.57268785  0.64453402  0.63911942    -0.81500
O965        O  0.67064942  0.52211560  0.65956623    -0.81000
C966        C  0.70463087  0.50624150  0.94151898     0.98400
O967        O  0.70850615  0.49440574  0.98945398    -0.70100
O968        O  0.71721780  0.49859959  0.59652714    -0.73700
Al969      Al  0.67109997  0.48242566  0.54725366     1.49000
C970        C  0.74646470  0.53334399  0.60937953     0.93600
O971        O  0.72034702  0.61461932  0.55918118    -0.79900
O972        O  0.63305605  0.57310973  0.52464868    -0.73500
Al973      Al  0.69401327  0.56487818  0.60325794     1.90100
O974        O  0.70447464  0.59091573  0.97334051    -0.72500
O975        O  0.60497189  0.49472379  0.98798573    -0.72400
O976        O  0.67909742  0.51815036  0.93278810    -0.78000
O977        O  0.62433233  0.45333825  0.49824856    -0.76200
O978        O  0.67403122  0.53101040  0.54449545    -1.12400
O979        O  0.63512969  0.46666662  0.60804370    -0.71600
C980        C  0.64233324  0.48550654  0.65441919     0.99200
C981        C  0.72523904  0.62122675  0.50667704     0.95600
Al982      Al  0.65633647  0.54203904  0.98503169     1.55600
O983        O  0.74375037  0.56487731  0.60165241    -0.76200
C984        C  0.59882717  0.45890238  0.98451917     0.99700
C985        C  0.62847796  0.57725068  0.57695008     0.94600
O986        O  0.64729669  0.56889649  0.61299135    -0.81500
O987        O  0.82475789  0.81057630  0.99389620    -0.81000
C988        C  0.82549120  0.85325079  0.77188201     0.98400
O989        O  0.83716956  0.87044323  0.81906024    -0.70100
O990        O  0.83831470  0.88081412  0.92783823    -0.73700
Al991      Al  0.85590075  0.85182053  0.87857156     1.49000
C992        C  0.80379301  0.87239921  0.94564650     0.93600
O993        O  0.72801920  0.76355792  0.89904906    -0.79900
O994        O  0.77024038  0.72044727  0.85970562    -0.73500
Al995      Al  0.77935507  0.78898402  0.94084769     1.90100
O996        O  0.74701713  0.77190034  0.81045775    -0.72500
O997        O  0.84347637  0.76854452  0.82025981    -0.72400
O998        O  0.81702357  0.81647839  0.76447964    -0.78000
O999        O  0.88505048  0.83419634  0.82921108    -0.76200
O1000       O  0.81020788  0.80411711  0.87970400    -1.12400
O1001       O  0.87814096  0.83743705  0.93838982    -0.71600
C1002       C  0.86234327  0.82433126  0.98579865     0.99200
C1003       C  0.71989373  0.76244849  0.84679789     0.95600
Al1004     Al  0.79578927  0.77196819  0.81888323     1.55600
O1005       O  0.77481750  0.83653696  0.94296369    -0.76200
C1006       C  0.87837520  0.79874029  0.81608123     0.99700
C1007       C  0.76948301  0.71231905  0.91160365     0.94600
O1008       O  0.77991323  0.73995394  0.94791419    -0.81500
C1009       C  0.75101164  0.66069044  0.98656294    -0.15600
C1010       C  0.75329320  0.66979376  0.93099058    -0.30800
H1011       H  0.76440909  0.68759336  0.51600998     0.13400
H1012       H  0.73911084  0.64553427  0.89981706     0.14000
C1013       C  0.66880269  0.74541407  0.77122287    -0.15600
C1014       C  0.67786430  0.74718334  0.82692007    -0.30800
H1015       H  0.69293252  0.75915643  0.74037763     0.13400
H1016       H  0.65380681  0.73365578  0.85788128     0.14000
C1017       C  0.59752879  0.59882729  0.65257891    -0.15600
C1018       C  0.60295664  0.59453116  0.59684631    -0.30800
H1019       H  0.60876844  0.58594337  0.68375998     0.13400
H1020       H  0.59133726  0.60693684  0.56551532     0.14000
C1021       C  0.39980183  0.55451657  0.80894993    -0.15600
C1022       C  0.43645395  0.55906958  0.79876056    -0.30800
H1023       H  0.39163707  0.57614524  0.79198501     0.13400
H1024       H  0.44501280  0.53834998  0.81804381     0.14000
C1025       C  0.45041011  0.57741885  0.55967864    -0.15600
C1026       C  0.46589682  0.61782888  0.55504293    -0.30800
H1027       H  0.46283184  0.56566350  0.59094527     0.13400
H1028       H  0.45494391  0.63072396  0.52345473     0.14000
C1029       C  0.25787680  0.33883981  0.56835464    -0.15600
C1030       C  0.26391107  0.34704520  0.51234446    -0.30800
H1031       H  0.26750256  0.36367405  0.59858100     0.13400
H1032       H  0.25389261  0.32237269  0.48178291     0.14000
C1033       C  0.55193576  0.38907262  0.94849354    -0.15600
C1034       C  0.56139656  0.42805635  0.95644191    -0.30800
H1035       H  0.56975479  0.37732004  0.96832115     0.13400
H1036       H  0.54376603  0.43929004  0.93463696     0.14000
C1037       C  0.57870741  0.45499070  0.70370483    -0.15600
C1038       C  0.61725961  0.46339100  0.70251416    -0.30800
H1039       H  0.56922104  0.47214397  0.67713856     0.13400
H1040       H  0.62714065  0.44622094  0.72822033     0.14000
C1041       C  0.33574762  0.26205379  0.67839199    -0.15600
C1042       C  0.34598015  0.26739369  0.73381163    -0.30800
H1043       H  0.35901878  0.27219295  0.64624564     0.13400
H1044       H  0.32245933  0.25631566  0.76569316     0.14000
C1045       C  0.42061833  0.41461363  0.85190402    -0.15600
C1046       C  0.41554734  0.41859078  0.90773426    -0.30800
H1047       H  0.40917347  0.42762134  0.82120992     0.13400
H1048       H  0.42729447  0.40603388  0.93866135     0.14000
C1049       C  0.58958856  0.99969094  0.89754113    -0.15600
C1050       C  0.59153736  0.00659630  0.84103771    -0.30800
H1051       H  0.60419507  0.02507284  0.92690807     0.13400
H1052       H  0.57645354  0.98122961  0.81174573     0.14000
C1053       C  0.51267308  0.78595755  0.60670802    -0.15600
C1054       C  0.54543568  0.78441171  0.62383035    -0.30800
H1055       H  0.48274423  0.76111906  0.61680651     0.13400
H1056       H  0.57522329  0.80775542  0.61015954     0.14000
C1057       C  0.51657491  0.72576474  0.86709933    -0.15600
C1058       C  0.54235305  0.76593853  0.86398712    -0.30800
H1059       H  0.49147267  0.71356246  0.89652553     0.13400
H1060       H  0.56733077  0.77687925  0.83427072     0.14000
C1061       C  0.82853596  0.94320635  0.47651641    -0.15600
C1062       C  0.79758971  0.90308694  0.97580357    -0.30800
H1063       H  0.85820761  0.95272060  0.45889182     0.13400
H1064       H  0.77361878  0.89170401  0.00712799     0.14000
C1065       C  0.79381109  0.88797709  0.72641040    -0.15600
C1066       C  0.82293110  0.87760340  0.72571252    -0.30800
H1067       H  0.76793733  0.87185969  0.75412799     0.13400
H1068       H  0.84901024  0.89338097  0.69834066     0.14000
C1069       C  0.74752112  0.07759836  0.67501833    -0.15600
C1070       C  0.74421650  0.08580902  0.72983026    -0.30800
H1071       H  0.73415611  0.08720703  0.64233535     0.13400
H1072       H  0.75850270  0.07721010  0.76244131     0.14000
C1073       C  0.66564656  0.92361001  0.51144619    -0.15600
C1074       C  0.67441910  0.92595927  0.56736441    -0.30800
H1075       H  0.68988753  0.93692267  0.48073159     0.13400
H1076       H  0.65008762  0.91234371  0.59792271     0.14000
C1077       C  0.55023840  0.12231528  0.67659372    -0.15600
C1078       C  0.53452961  0.14688502  0.68581965    -0.30800
H1079       H  0.53967568  0.10114096  0.64113656     0.13400
H1080       H  0.54350747  0.16706253  0.72227177     0.14000
C1081       C  0.55372587  0.11685448  0.92089598    -0.15600
C1082       C  0.59378413  0.14131447  0.92682899    -0.30800
H1083       H  0.54174773  0.09654940  0.88469561     0.13400
H1084       H  0.60616292  0.16021293  0.96423949     0.14000
C1085       C  0.50091195  0.22703196  0.89220846    -0.15600
C1086       C  0.46966138  0.22651387  0.86585255    -0.30800
H1087       H  0.53011339  0.25480230  0.89301914     0.13400
H1088       H  0.43953207  0.20027052  0.86979337     0.14000
C1089       C  0.46615505  0.25119588  0.62486513    -0.15600
C1090       C  0.49820473  0.28861229  0.63077182    -0.30800
H1091       H  0.43823006  0.24397551  0.64662335     0.13400
H1092       H  0.52683708  0.29579732  0.61148179     0.14000
C1093       C  0.32506578  0.09997722  0.92300527    -0.15600
C1094       C  0.33658867  0.10940416  0.97735654    -0.30800
H1095       H  0.34769683  0.10914989  0.89002166     0.13400
H1096       H  0.31384844  0.10148736  0.00993857     0.14000
C1097       C  0.19603515  0.09679268  0.54542059    -0.15600
C1098       C  0.18769993  0.07208126  0.03363538    -0.30800
H1099       H  0.22497076  0.09786945  0.54090267     0.13400
H1100       H  0.21147270  0.07982375  0.06451127     0.14000
C1101       C  0.19505901  0.13816906  0.78410706    -0.15600
C1102       C  0.16861718  0.09828158  0.78988849    -0.30800
H1103       H  0.22313392  0.15240472  0.80779789     0.13400
H1104       H  0.13955734  0.08548042  0.76869589     0.14000
C1105       C  0.43729482  0.89271241  0.59762670    -0.15600
C1106       C  0.43023611  0.86611614  0.55570019    -0.30800
H1107       H  0.46749054  0.91833761  0.60434321     0.13400
H1108       H  0.40026189  0.83986550  0.55020409     0.14000
C1109       C  0.42532828  0.86678852  0.82802447    -0.15600
C1110       C  0.45269298  0.85533901  0.81244598    -0.30800
H1111       H  0.42391729  0.87469889  0.87178053     0.13400
H1112       H  0.45694811  0.85115180  0.76809973     0.14000
C1113       C  0.29935080  0.95206467  0.81935875    -0.15600
C1114       C  0.25985026  0.94146107  0.82127667    -0.30800
H1115       H  0.32133358  0.97788709  0.84400355     0.13400
H1116       H  0.23842078  0.91669705  0.79460299     0.14000
C1117       C  0.36414988  0.98763964  0.59268749    -0.15600
C1118       C  0.40284514  0.01128454  0.57742911    -0.30800
H1119       H  0.34148464  0.99562042  0.58017942     0.13400
H1120       H  0.42548415  0.00351777  0.59076292     0.14000
C1121       C  0.94829024  0.82216141  0.78472789    -0.15600
C1122       C  0.91004698  0.79220777  0.79046674    -0.30800
H1123       H  0.95804591  0.85182408  0.80392154     0.13400
H1124       H  0.90041443  0.76322229  0.76910061     0.14000
C1125       C  0.89065652  0.79420135  0.54105690    -0.15600
C1126       C  0.88952145  0.82633736  0.03126791    -0.30800
H1127       H  0.86849212  0.76440149  0.52477583     0.13400
H1128       H  0.91338832  0.85648373  0.04363511     0.14000
C1129       C  0.06134452  0.87220172  0.47729196    -0.15600
C1130       C  0.10567405  0.89091736  0.98661095    -0.30800
H1131       H  0.05292460  0.87885528  0.94125273     0.13400
H1132       H  0.11762032  0.88178186  0.02179235     0.14000
C1133       C  0.10934709  0.90046930  0.72900385    -0.15600
C1134       C  0.11547660  0.93850168  0.73585200    -0.30800
H1135       H  0.12723117  0.89069470  0.75318662     0.13400
H1136       H  0.09799162  0.94878925  0.71181110     0.14000
C1137       C  0.07345380  0.74017566  0.56620585    -0.15600
C1138       C  0.07416398  0.73320728  0.50987741    -0.30800
H1139       H  0.08884704  0.73049672  0.59553977     0.13400
H1140       H  0.05918797  0.74331274  0.48045412     0.14000
C1141       C  0.22211015  0.74249238  0.58601514    -0.15600
C1142       C  0.24968958  0.78093915  0.57133518    -0.30800
H1143       H  0.21833094  0.73359221  0.63001742     0.13400
H1144       H  0.25107338  0.79104199  0.52823496     0.14000
C1145       C  0.24313893  0.76654860  0.84306006    -0.15600
C1146       C  0.23581888  0.78685817  0.80334827    -0.30800
H1147       H  0.27287994  0.76933697  0.84630906     0.13400
H1148       H  0.20574815  0.78304994  0.79867709     0.14000
C1149       C  0.92666212  0.65538351  0.74142906    -0.15600
C1150       C  0.92878833  0.66513652  0.68591403    -0.30800
H1151       H  0.93911744  0.67951517  0.77295755     0.13400
H1152       H  0.91556972  0.64097710  0.65451142     0.14000
C1153       C  0.78907915  0.50584137  0.64591863    -0.15600
C1154       C  0.78256896  0.53740337  0.63870057    -0.30800
H1155       H  0.76922529  0.47663576  0.62599997     0.13400
H1156       H  0.80212224  0.56614757  0.66005522     0.14000
C1157       C  0.76999803  0.53364251  0.89544568    -0.15600
C1158       C  0.73057842  0.50539141  0.89608326    -0.30800
H1159       H  0.78055017  0.56085435  0.92154425     0.13400
H1160       H  0.71936387  0.47794922  0.87043931     0.14000
C1161       C  0.00174608  0.57687657  0.84698723    -0.15600
C1162       C  0.01156225  0.58266426  0.90300381    -0.30800
H1163       H  0.02558667  0.58973034  0.81557869     0.13400
H1164       H  0.98788981  0.56864922  0.93447800     0.14000
C1165       C  0.75696447  0.24797250  0.87490733    -0.15600
C1166       C  0.79272461  0.25137754  0.88637047    -0.30800
H1167       H  0.74926209  0.27018109  0.89173100     0.13400
H1168       H  0.80096533  0.23001318  0.86783627     0.14000
C1169       C  0.76656597  0.23460397  0.65117599    -0.15600
C1170       C  0.72829559  0.21030465  0.63295013    -0.30800
H1171       H  0.77310684  0.23451909  0.69571230     0.13400
H1172       H  0.72129566  0.20726733  0.58828058     0.14000
C1173       C  0.88663591  0.40485343  0.67303742    -0.15600
C1174       C  0.85712175  0.41181027  0.69075818    -0.30800
H1175       H  0.91774076  0.42510887  0.68556010     0.13400
H1176       H  0.82611250  0.38972789  0.67972937     0.14000
C1177       C  0.87814566  0.42215039  0.92298677    -0.15600
C1178       C  0.86312029  0.44636828  0.93989882    -0.30800
H1179       H  0.88818251  0.42406902  0.87962606     0.13400
H1180       H  0.85486992  0.44681576  0.98360553     0.14000
C1181       C  0.86800998  0.20848255  0.98273405    -0.15600
C1182       C  0.87951776  0.19979683  0.93312807    -0.30800
H1183       H  0.83715798  0.18782664  0.99590454     0.13400
H1184       H  0.85650619  0.17411429  0.90934191     0.14000
C1185       C  0.10923367  0.22697672  0.74150497    -0.15600
C1186       C  0.06906621  0.20720541  0.73366911    -0.30800
H1187       H  0.12188736  0.24616147  0.77866888     0.13400
H1188       H  0.05601037  0.18986685  0.69523034     0.14000
C1189       C  0.10572340  0.22940410  0.99819047    -0.15600
C1190       C  0.12650422  0.19891821  0.48553929    -0.30800
H1191       H  0.10989758  0.24638275  0.03715428     0.13400
H1192       H  0.12147693  0.18130459  0.44703883     0.14000
C1193       C  0.91036779  0.10849184  0.54608301    -0.15600
C1194       C  0.94115756  0.11069184  0.02299443    -0.30800
H1195       H  0.90734433  0.13553946  0.54154217     0.13400
H1196       H  0.94228629  0.08244366  0.02170458     0.14000
C1197       C  0.87539683  0.06424053  0.78134400    -0.15600
C1198       C  0.91601921  0.08409197  0.78012346    -0.30800
H1199       H  0.85946160  0.07316553  0.81116123     0.13400
H1200       H  0.93144845  0.07302309  0.75265055     0.14000
C1201       C  0.00798961  0.38662681  0.55921598    -0.15600
C1202       C  0.02962625  0.37317660  0.58765612    -0.30800
H1203       H  0.01957521  0.41913957  0.55388709     0.13400
H1204       H  0.01873712  0.34059455  0.59027485     0.14000
C1205       C  0.03729808  0.34993994  0.80672392    -0.15600
C1206       C  0.04958395  0.33204463  0.84451451    -0.30800
H1207       H  0.00546308  0.33593987  0.79595443     0.13400
H1208       H  0.08096626  0.34706180  0.85792935     0.14000
C1209       C  0.21696982  0.44971115  0.82529037    -0.15600
C1210       C  0.23793940  0.47848952  0.86368215    -0.30800
H1211       H  0.22076533  0.42302399  0.82193061     0.13400
H1212       H  0.23530584  0.50588740  0.86574258     0.14000
C1213       C  0.23291533  0.46765918  0.59196858    -0.15600
C1214       C  0.27223992  0.48604082  0.60746518    -0.30800
H1215       H  0.22413176  0.45602575  0.54932114     0.13400
H1216       H  0.28085956  0.49443922  0.65117819     0.14000
C1217       C  0.13002318  0.55367859  0.59474892    -0.15600
C1218       C  0.15893588  0.57619696  0.55752347    -0.30800
H1219       H  0.10202577  0.55476499  0.59478656     0.13400
H1220       H  0.18763535  0.57658330  0.55800622     0.14000
C1221       C  0.12859459  0.55344048  0.82823380    -0.15600
C1222       C  0.14368177  0.59266214  0.81268699    -0.30800
H1223       H  0.11799542  0.54386378  0.87095129     0.13400
H1224       H  0.15094304  0.60129877  0.76880832     0.14000
loop_ 
_geom_bond_atom_site_label_1 
_geom_bond_atom_site_label_2 
_geom_bond_distance 
_geom_bond_site_symmetry_2 
_ccdc_geom_bond_type 
O1           C16   1.256       .  A
O1           Al9   1.877       .  S
C2           O12   1.270       .  A
C2            O3   1.268       .  A
C2          C597   1.463       .  S
O3           Al5   1.916       .  S
O4            C6   1.259       .  A
O4           Al5   1.898       .  S
Al5          O13   1.935       .  S
Al5          O15   1.927       .  S
Al5          O14   1.781       .  S
C6           O19   1.259       .  A
C6          C593   1.472       .  S
O7           C17   1.261       .  A
O7           Al9   1.925       .  S
O8           C21   1.272       .  A
O8          Al18   1.899       .  S
Al9          O22   1.903       .  S
Al9          O19   1.909       .  S
Al9          O14   1.782       .  S
O10          C17   1.254       .  A
O10         Al18   1.902       .  S
O11          C20   1.253       .  A
O11         Al18   1.908       .  S
O12         Al18   1.892       .  S
O13          C20   1.263       .  A
O14         Al18   1.783       .  S
O15          C16   1.264       .  A
C16         C590   1.475       .  S
C17         C609   1.474       .  S
C20         C601   1.484       .  S
C21          O22   1.265       .  A
C21         C605   1.459       .  S
O23          C38   1.276       .  A
O23         Al31   1.928   1_655  S
C24          O34   1.275       .  A
C24          O25   1.265       .  A
C24         C574   1.467       .  S
O25         Al27   1.872       .  S
O26          C28   1.244       .  A
O26         Al27   1.867       .  S
Al27         O35   1.901   1_455  S
Al27         O37   1.874   1_455  S
Al27         O36   1.789   1_455  S
C28          O41   1.250       .  A
C28         C577   1.470       .  S
O29          C39   1.262       .  A
O29         Al31   1.907       .  S
O30          C43   1.256       .  A
O30         Al40   1.895       .  S
Al31         O44   1.900   1_455  S
Al31         O41   1.906       .  S
Al31         O36   1.794   1_455  S
O32          C39   1.261       .  A
O32         Al40   1.894   1_455  S
O33          C42   1.253       .  A
O33         Al40   1.921       .  S
O34         Al40   1.957   1_455  S
O35          C42   1.250       .  A
O36         Al40   1.787       .  S
O37          C38   1.268       .  A
C38         C582   1.457       .  S
C39         C594   1.473       .  S
C42         C586   1.472       .  S
C43          O44   1.253       .  A
C43         C570   1.474       .  S
O45          C60   1.270       .  A
O45         Al53   1.913       .  S
C46          O56   1.254       .  A
C46          O47   1.269       .  A
C46         C554   1.464       .  S
O47        Al661   1.931       .  S
O48          C50   1.256       .  A
O48         Al49   1.921       .  S
Al49         O57   1.896       .  S
Al49         O59   1.938       .  S
Al49        O659   1.927   1_554  S
Al49         O58   1.773       .  S
C50          O63   1.261       .  A
C50         C557   1.490       .  S
O51          C61   1.269       .  A
O51         Al53   1.908       .  S
O52          C65   1.262       .  A
O52        Al674   1.909   1_554  S
Al53         O66   1.933       .  S
Al53         O63   1.937       .  S
Al53         O58   1.778       .  S
O54         C673   1.273       .  A
O54         Al62   1.960       .  S
O55          C64   1.267       .  A
O55         Al62   1.940       .  S
O56         Al62   1.865       .  S
O57         C676   1.255   1_554  A
O58        Al674   1.783   1_554  S
O59          C60   1.276       .  A
C60         C561   1.485       .  S
C61         O666   1.270   1_554  A
C61        C1181   1.480   1_554  S
Al62        O664   1.911       .  S
Al62        O670   1.780       .  S
C64         O669   1.254       .  A
C64         C565   1.484       .  S
C65          O66   1.265       .  A
C65         C589   1.473   1_655  S
O67          C82   1.256       .  A
O67         Al75   1.894       .  S
C68          O78   1.264       .  A
C68          O69   1.279       .  A
C68         C566   1.481       .  S
O69         Al71   1.971       .  S
O70          C72   1.248       .  A
O70         Al71   1.855       .  S
Al71         O79   1.895       .  S
Al71         O81   1.951       .  S
Al71         O80   1.780       .  S
C72          O85   1.273       .  A
C72         C549   1.487       .  S
O73          C83   1.260       .  A
O73         Al75   1.933       .  S
O74          C87   1.267       .  A
O74         Al84   1.876       .  S
Al75         O88   1.967       .  S
Al75         O85   1.963       .  S
Al75         O80   1.782       .  S
O76          C83   1.252       .  A
O76         Al84   1.895       .  S
O77          C86   1.257       .  A
O77         Al84   1.924       .  S
O78         Al84   1.881       .  S
O79          C86   1.251       .  A
O80         Al84   1.781       .  S
O81          C82   1.271       .  A
C82         C537   1.496       .  S
C83         C562   1.477       .  S
C86         C545   1.477       .  S
C87          O88   1.279       .  A
C87         C541   1.466       .  S
O89         C716   1.249   1_554  A
O89         Al97   1.844       .  S
C90         O100   1.263       .  A
C90          O91   1.280       .  A
C90         C610   1.473       .  S
O91         Al93   1.973       .  S
O92          C94   1.246       .  A
O92         Al93   1.838       .  S
Al93        O101   1.881       .  S
Al93        O103   1.958       .  S
Al93        O102   1.771       .  S
C94         O107   1.276       .  A
C94         C550   1.489       .  S
O95         C105   1.253       .  A
O95         Al97   1.895       .  S
O96         C109   1.272       .  A
O96        Al718   1.891   1_554  S
Al97        O110   1.992       .  S
Al97        O719   1.966   1_554  S
Al97        O714   1.764   1_554  S
O98         C105   1.245       .  A
O98        Al718   1.888   1_554  S
O99         C108   1.262       .  A
O99        Al106   1.923       .  S
O100       Al106   1.874       .  S
O101        C108   1.249       .  A
O102       Al106   1.780       .  S
O102       Al709   1.764       .  S
O103        C104   1.271       .  A
C104        O701   1.250       .  A
C104       C1138   1.485       .  S
C105        C606   1.461       .  S
Al106       O708   1.880       .  S
Al106       O710   1.924       .  S
O107       Al709   1.983       .  S
C108        C533   1.467       .  S
C109        O110   1.288       .  A
C109        C529   1.488       .  S
O111        C126   1.252       .  A
O111       Al119   1.879   1_655  S
C112        O122   1.257       .  A
C112        O113   1.276       .  A
C112        C517   1.478   1_554  S
O113       Al115   1.978   1_455  S
O114        C116   1.252       .  A
O114       Al115   1.858   1_455  S
Al115       O123   1.901       .  S
Al115       O125   1.972       .  S
Al115       O124   1.779   1_655  S
C116        O129   1.274       .  A
C116        C525   1.480       .  S
O117        C127   1.253       .  A
O117       Al119   1.889       .  S
O118        C131   1.261       .  A
O118       Al128   1.864   1_655  S
Al119       O132   1.963   1_455  S
Al119       O129   1.961       .  S
Al119       O124   1.777       .  S
O120        C127   1.259       .  A
O120       Al128   1.912       .  S
O121        C130   1.267       .  A
O121       Al128   1.942   1_655  S
O122       Al128   1.871       .  S
O123        C130   1.259       .  A
O124       Al128   1.779       .  S
O125        C126   1.272       .  A
C126        C538   1.498       .  S
C127        C521   1.469       .  S
C130        C513   1.484       .  S
C131        O132   1.276       .  A
C131        C509   1.466       .  S
O133        C148   1.253       .  A
O133       Al141   1.875       .  S
C134        O144   1.271       .  A
C134        O135   1.277       .  A
C134        C493   1.468       .  S
O135       Al137   1.949       .  S
O136        C138   1.255       .  A
O136       Al137   1.866       .  S
Al137       O145   1.933       .  S
Al137       O147   1.953       .  S
Al137       O146   1.776       .  S
C138        O151   1.269       .  A
C138        C505   1.478       .  S
O139        C149   1.254       .  A
O139       Al141   1.920       .  S
O140        C153   1.266       .  A
O140       Al150   1.861       .  S
Al141       O154   1.958       .  S
Al141       O151   1.945       .  S
Al141       O146   1.774       .  S
O142        C149   1.252       .  A
O142       Al150   1.925       .  S
O143        C152   1.255       .  A
O143       Al150   1.924       .  S
O144       Al150   1.873       .  S
O145        C152   1.263       .  A
O146       Al150   1.783       .  S
O147        C148   1.268       .  A
C148        C501   1.498       .  S
C149        C530   1.484       .  S
C152        C497   1.485       .  S
C153        O154   1.283       .  A
C153        C534   1.462       .  S
O155        C170   1.275       .  A
O155       Al163   1.949   1_545  S
C156        O166   1.270       .  A
C156        O157   1.263       .  A
C156        C522   1.464       .  S
O157       Al159   1.881       .  S
O158        C160   1.249       .  A
O158       Al159   1.891       .  S
Al159       O167   1.905   1_565  S
Al159       O169   1.885   1_565  S
Al159       O168   1.792   1_565  S
C160        O173   1.253       .  A
C160        C518   1.478       .  S
O161        C171   1.271       .  A
O161       Al163   1.949       .  S
O162        C175   1.258       .  A
O162       Al172   1.916       .  S
Al163       O176   1.862   1_565  S
Al163       O173   1.908       .  S
Al163       O168   1.786   1_565  S
O164        C171   1.263       .  A
O164       Al172   1.900   1_565  S
O165        C174   1.262       .  A
O165       Al172   1.934       .  S
O166       Al172   1.948   1_565  S
O167        C174   1.255       .  A
O168       Al172   1.796       .  S
O169        C170   1.265       .  A
C170        C486   1.479       .  S
C171        C502   1.485       .  S
C174        C490   1.475       .  S
C175        O176   1.250       .  A
C175        C481   1.477       .  S
O177        C192   1.265       .  A
O177       Al185   1.919       .  S
C178        O188   1.276       .  A
C178        O179   1.264       .  A
C178        C466   1.467       .  S
O179       Al181   1.868       .  S
O180        C794   1.244       .  A
O180       Al181   1.862   1_556  S
Al181       O189   1.893       .  S
Al181       O803   1.866   1_554  S
Al181       O190   1.785       .  S
C182        O195   1.258       .  A
C182        O792   1.260       .  A
C182        C469   1.472       .  S
O183        C193   1.267       .  A
O183       Al797   1.924   1_554  S
O184        C197   1.259   1_554  A
O184       Al194   1.913       .  S
Al185       O198   1.883       .  S
Al185       O195   1.896       .  S
Al185       O795   1.937       .  S
Al185       O802   1.784       .  S
O186        C193   1.262       .  A
O186       Al194   1.893       .  S
O187        C196   1.258       .  A
O187       Al194   1.930       .  S
O188       Al194   1.965       .  S
O189        C196   1.250       .  A
O190       Al194   1.791       .  S
O190       Al797   1.784   1_554  S
O191        C192   1.258       .  A
O191       Al793   1.857       .  S
C192        C473   1.445       .  S
C193        C506   1.474       .  S
C196        C477   1.466       .  S
C197        O810   1.251       .  A
C197       C1094   1.477       .  S
O198        C809   1.255       .  A
O199        C214   1.255       .  A
O199       Al207   1.875   1_565  S
C200        O210   1.261       .  A
C200        O201   1.276       .  A
C200        C585   1.481       .  S
O201       Al203   1.960   1_545  S
O202        C204   1.250       .  A
O202       Al203   1.874   1_545  S
Al203       O211   1.907       .  S
Al203       O213   1.959       .  S
Al203       O212   1.774   1_565  S
C204        O217   1.266       .  A
C204        C457   1.483       .  S
O205        C215   1.253       .  A
O205       Al207   1.891       .  S
O206        C219   1.261       .  A
O206       Al216   1.867       .  S
Al207       O220   1.967   1_545  S
Al207       O217   1.943       .  S
Al207       O212   1.782       .  S
O208        C215   1.261       .  A
O208       Al216   1.911   1_545  S
O209        C218   1.257       .  A
O209       Al216   1.908       .  S
O210       Al216   1.861   1_545  S
O211        C218   1.256       .  A
O212       Al216   1.782   1_545  S
O213        C214   1.275       .  A
C214        C462   1.486       .  S
C215        C581   1.464       .  S
C218        C453   1.479       .  S
C219        O220   1.274       .  A
C219        C449   1.468   1_554  S
O221        C848   1.252   1_554  A
O221       Al229   1.860       .  S
C222        O232   1.259       .  A
C222        O223   1.277       .  A
C222        C498   1.484       .  S
O223       Al225   1.972       .  S
O224        C226   1.249       .  A
O224       Al225   1.847       .  S
Al225       O233   1.881       .  S
Al225       O235   1.960       .  S
Al225       O234   1.776       .  S
C226        O239   1.274       .  A
C226        C437   1.487       .  S
O227        C237   1.258       .  A
O227       Al229   1.890       .  S
O228        C241   1.262       .  A
O228       Al850   1.880   1_554  S
Al229       O242   1.963       .  S
Al229       O851   1.966   1_554  S
Al229       O846   1.777   1_554  S
O230        C237   1.259       .  A
O230       Al850   1.901   1_554  S
O231        C240   1.262       .  A
O231       Al238   1.924       .  S
O232       Al238   1.880       .  S
O233        C240   1.252       .  A
O234       Al238   1.782       .  S
O234       Al841   1.778       .  S
O235        C236   1.271       .  A
C236        O833   1.252       .  A
C236       C1073   1.487       .  S
C237        C494   1.457       .  S
Al238       O840   1.872       .  S
Al238       O842   1.891       .  S
O239       Al841   1.973       .  S
C240        C446   1.466       .  S
C241        O242   1.274       .  A
C241        C441   1.471       .  S
O243        C258   1.248       .  A
O243       Al251   1.857       .  S
C244        O254   1.267       .  A
C244        O245   1.273       .  A
C244        C470   1.465       .  S
O245       Al247   1.953       .  S
O246        C248   1.254       .  A
O246       Al247   1.869       .  S
Al247       O255   1.897       .  S
Al247       O257   1.959       .  S
Al247       O256   1.778       .  S
C248        O261   1.275       .  A
C248        C438   1.483       .  S
O249        C259   1.250       .  A
O249       Al251   1.885       .  S
O250        C263   1.266       .  A
O250       Al260   1.893       .  S
Al251       O264   1.972       .  S
Al251       O261   1.958       .  S
Al251       O256   1.772       .  S
O252        C259   1.259       .  A
O252       Al260   1.917       .  S
O253        C262   1.258       .  A
O253       Al260   1.915       .  S
O254       Al260   1.890       .  S
O255        C262   1.261       .  A
O256       Al260   1.778       .  S
O257        C258   1.268       .  A
C258        C458   1.486       .  S
C259        C465   1.466       .  S
C262        C553   1.467       .  S
C263        O264   1.278       .  A
C263        C558   1.492       .  S
O265        C280   1.255       .  A
O265       Al273   1.862       .  S
C266        O276   1.261       .  A
C266        O267   1.270       .  A
C266        C478   1.479       .  S
O267       Al269   1.943       .  S
O268        C270   1.250       .  A
O268       Al269   1.877       .  S
Al269       O277   1.905       .  S
Al269       O279   1.945       .  S
Al269       O278   1.781       .  S
C270        O283   1.265       .  A
C270        C430   1.480       .  S
O271        C281   1.252       .  A
O271       Al273   1.884       .  S
O272        C285   1.261       .  A
O272       Al282   1.881       .  S
Al273       O286   1.967       .  S
Al273       O283   1.941       .  S
Al273       O278   1.782       .  S
O274        C281   1.260       .  A
O274       Al282   1.901       .  S
O275        C284   1.256       .  A
O275       Al282   1.896       .  S
O276       Al282   1.864       .  S
O277        C284   1.257       .  A
O278       Al282   1.778       .  S
O279        C280   1.271       .  A
C280        C433   1.474       .  S
C281        C474   1.460       .  S
C284        C425   1.474       .  S
C285        O286   1.273       .  A
C285        C421   1.476       .  S
O287        C302   1.246       .  A
O287       Al295   1.842       .  S
C288        O298   1.269       .  A
C288        O289   1.278       .  A
C288        C578   1.464   1_554  S
O289       Al291   1.958       .  S
O290        C292   1.255       .  A
O290       Al291   1.870       .  S
Al291       O299   1.933       .  S
Al291       O301   1.949       .  S
Al291       O300   1.784       .  S
C292        O305   1.267       .  A
C292        C417   1.472       .  S
O293        C303   1.246       .  A
O293       Al295   1.894       .  S
O294        C307   1.273       .  A
O294       Al304   1.885       .  S
Al295       O308   1.956       .  S
Al295       O305   1.923       .  S
Al295       O300   1.775       .  S
O296        C303   1.248       .  A
O296       Al304   1.892       .  S
O297        C306   1.251       .  A
O297       Al304   1.900       .  S
O298       Al304   1.880       .  S
O299        C306   1.260       .  A
O300       Al304   1.778       .  S
O301        C302   1.266       .  A
C302        C429   1.484       .  S
C303        C573   1.466       .  S
C306        C485   1.473       .  S
C307        O308   1.280       .  A
C307        C489   1.485       .  S
O309        C324   1.252       .  A
O309       Al317   1.854       .  S
C310        O320   1.260       .  A
C310        O311   1.276       .  A
C310        C602   1.482       .  S
O311       Al313   1.967       .  S
O312        C926   1.249   1_554  A
O312       Al313   1.843       .  S
Al313       O321   1.881       .  S
Al313       O935   1.951   1_554  S
Al313       O934   1.775   1_554  S
C314        O327   1.270       .  A
C314        O924   1.250       .  A
C314       C1030   1.483       .  S
O315        C325   1.259       .  A
O315       Al317   1.887       .  S
O316        C329   1.262       .  A
O316       Al326   1.874       .  S
Al317       O330   1.952       .  S
Al317       O327   1.963       .  S
Al317       O322   1.772       .  S
O318        C325   1.256       .  A
O318       Al326   1.902       .  S
O319        C328   1.261       .  A
O319       Al938   1.923   1_554  S
O320       Al938   1.882   1_554  S
O321        C328   1.251       .  A
O322       Al326   1.779       .  S
O322       Al925   1.775       .  S
O323        C324   1.270       .  A
O323       Al925   1.953       .  S
C324        C434   1.477       .  S
C325        C598   1.461       .  S
Al326       O931   1.927       .  S
Al326       O932   1.877       .  S
C328        C413   1.467       .  S
C329        O330   1.273       .  A
C329        C409   1.462       .  S
O331        C346   1.272       .  A
O331       Al339   1.954       .  S
C332        O342   1.271       .  A
C332        O333   1.258       .  A
C332        C445   1.460       .  S
O333       Al335   1.860       .  S
O334        C336   1.262       .  A
O334       Al335   1.923       .  S
Al335       O343   1.924       .  S
Al335       O345   1.858       .  S
Al335       O344   1.777       .  S
C336        O349   1.258       .  A
C336        C442   1.480       .  S
O337        C347   1.272       .  A
O337       Al339   1.953       .  S
O338        C351   1.267       .  A
O338       Al348   1.944       .  S
Al339       O352   1.883       .  S
Al339       O349   1.902       .  S
Al339       O344   1.778       .  S
O340        C347   1.255       .  A
O340       Al348   1.873       .  S
O341        C350   1.256       .  A
O341       Al348   1.895       .  S
O342       Al348   1.956       .  S
O343        C350   1.264       .  A
O344       Al348   1.782       .  S
O345        C346   1.258       .  A
C346        C414   1.460       .  S
C347        C401   1.482       .  S
C350        C410   1.475       .  S
C351        O352   1.255       .  A
C351        C405   1.483       .  S
O353        C368   1.271       .  A
O353       Al361   1.950       .  S
C354        O364   1.273       .  A
C354        O355   1.259       .  A
C354        C546   1.470       .  S
O355       Al969   1.871       .  S
O356        C358   1.263       .  A
O356       Al357   1.927       .  S
Al357       O365   1.938       .  S
Al357       O367   1.871       .  S
Al357       O967   1.873   1_554  S
Al357       O366   1.783       .  S
C358        O371   1.256       .  A
C358        C542   1.476       .  S
O359        C369   1.268       .  A
O359       Al361   1.942       .  S
O360        C373   1.269       .  A
O360       Al982   1.950   1_554  S
Al361       O374   1.873       .  S
Al361       O371   1.894       .  S
Al361       O366   1.782       .  S
O362        C981   1.252       .  A
O362       Al370   1.869       .  S
O363        C372   1.255       .  A
O363       Al370   1.888       .  S
O364       Al370   1.960       .  S
O365        C984   1.263   1_554  A
O366       Al982   1.778   1_554  S
O367        C368   1.260       .  A
C368        C426   1.464       .  S
C369        O974   1.253   1_554  A
C369       C1009   1.479   1_554  S
Al370       O972   1.960       .  S
Al370       O978   1.777       .  S
C372        O977   1.265       .  A
C372        C422   1.482       .  S
C373        O374   1.254       .  A
C373        C406   1.485       .  S
O375        C390   1.273       .  A
O375       Al383   1.960       .  S
C376        O386   1.271       .  A
C376        O377   1.258       .  A
C376        C454   1.470       .  S
O377       Al379   1.876       .  S
O378        C380   1.264       .  A
O378       Al379   1.927       .  S
Al379       O387   1.936       .  S
Al379       O389   1.873       .  S
Al379       O388   1.782       .  S
C380        O393   1.255       .  A
C380        C450   1.475       .  S
O381        C391   1.271       .  A
O381       Al383   1.959       .  S
O382        C395   1.269       .  A
O382       Al392   1.951       .  S
Al383       O396   1.866       .  S
Al383       O393   1.890       .  S
Al383       O388   1.779       .  S
O384        C391   1.252       .  A
O384       Al392   1.865       .  S
O385        C394   1.254       .  A
O385       Al392   1.881       .  S
O386       Al392   1.954       .  S
O387        C394   1.265       .  A
O388       Al392   1.781       .  S
O389        C390   1.258       .  A
C390        C514   1.472       .  S
C391        C402   1.484       .  S
C394        C510   1.474       .  S
C395        O396   1.253       .  A
C395        C398   1.480       .  S
C397        C981   1.479       .  S
C397        C398   1.356       .  D
C397       H1011   1.086       .  S
C398        H400   1.086       .  S
H399       C1009   1.086   1_554  S
C401        C402   1.358       .  D
C401        H403   1.086       .  S
C402        H404   1.086       .  S
C405        C406   1.356       .  D
C405        H407   1.086       .  S
C406        H408   1.086       .  S
C409        C410   1.340       .  D
C409        H411   1.086       .  S
C410        H412   1.087       .  S
C413        C414   1.338       .  D
C413        H415   1.088       .  S
C414        H416   1.086       .  S
C417        C418   1.357       .  D
C417        H419   1.086       .  S
C418        C926   1.477   1_554  S
C418        H420   1.085   1_554  S
C421        C422   1.343       .  D
C421        H423   1.086       .  S
C422        H424   1.088       .  S
C425        C426   1.345       .  D
C425        H427   1.087       .  S
C426        H428   1.086       .  S
C429        C430   1.360       .  D
C429        H431   1.086       .  S
C430        H432   1.087       .  S
C433        C434   1.357       .  D
C433        H435   1.086       .  S
C434        H436   1.086       .  S
C437        C438   1.364   1_565  D
C437        H439   1.085   1_565  S
C438        H440   1.085   1_545  S
C441        C442   1.344       .  D
C441        H443   1.086       .  S
C442        H444   1.087       .  S
C445        C446   1.338       .  D
C445        H447   1.086       .  S
C446        H448   1.088       .  S
C449       C1062   1.341       .  D
C449        H451   1.085       .  S
C450       C1061   1.340       .  D
C450        H452   1.088       .  S
C453        C454   1.346       .  D
C453        H455   1.088       .  S
C454        H456   1.086       .  S
C457        C458   1.360       .  D
C457        H459   1.085       .  S
C458        H460   1.085       .  S
C461        C848   1.490   1_554  S
C461        C462   1.363       .  D
C461        H463   1.086   1_554  S
C462        H464   1.086       .  S
C465        C466   1.340       .  D
C465        H467   1.087       .  S
C466        H468   1.086       .  S
C469        C470   1.341       .  D
C469        H471   1.087       .  S
C470        H472   1.086       .  S
C473        C474   1.334       .  D
C473        H475   1.087       .  S
C474        H476   1.088       .  S
C477        C478   1.342       .  D
C477        H479   1.087       .  S
C478        H480   1.086       .  S
C481        C482   1.350       .  D
C481        H483   1.087       .  S
C482        C809   1.473       .  S
C482        H484   1.087       .  S
C485       C1098   1.339       .  D
C485        H487   1.087       .  S
C486       C1097   1.345       .  D
C486        H488   1.087       .  S
C489        C490   1.344       .  D
C489        H491   1.086       .  S
C490        H492   1.086       .  S
C493        C494   1.339       .  D
C493        H495   1.087       .  S
C494        H496   1.087       .  S
C497        C498   1.357       .  D
C497        H499   1.086       .  S
C498        H500   1.085       .  S
C501        C502   1.358       .  D
C501        H503   1.086       .  S
C502        H504   1.086       .  S
C505        C506   1.350   1_565  D
C505        H507   1.086   1_565  S
C506        H508   1.087   1_545  S
C509        C510   1.339       .  D
C509        H511   1.086       .  S
C510        H512   1.088       .  S
C513       C1126   1.343       .  D
C513        H515   1.087       .  S
C514       C1125   1.344       .  D
C514        H516   1.086       .  S
C517       C1130   1.353       .  D
C517       H1131   1.086       .  S
C518       C1129   1.350       .  D
C518        H520   1.087       .  S
H519       C1129   1.086       .  S
C521        C522   1.339       .  D
C521        H523   1.087       .  S
C522        H524   1.086       .  S
C525        C526   1.363       .  D
C525        H527   1.086       .  S
C526        C716   1.483   1_554  S
C526        H528   1.086   1_554  S
C529        C530   1.354       .  D
C529        H531   1.086       .  S
C530        H532   1.086       .  S
C533        C534   1.334       .  D
C533        H535   1.087       .  S
C534        H536   1.087       .  S
C537        C538   1.364       .  D
C537        H539   1.085       .  S
C538        H540   1.085       .  S
C541        C542   1.340       .  D
C541        H543   1.086       .  S
C542        H544   1.087       .  S
C545        C546   1.343       .  D
C545        H547   1.088       .  S
C546        H548   1.086       .  S
C549        C550   1.369   1_655  D
C549        H551   1.087   1_655  S
C550        H552   1.086   1_455  S
C553        C554   1.334       .  D
C553        H555   1.087       .  S
C554        H556   1.087       .  S
C557        C558   1.354       .  D
C557        H559   1.087       .  S
C558        H560   1.086       .  S
C561        C562   1.342       .  D
C561        H563   1.086       .  S
C562        H564   1.088       .  S
C565        C566   1.354       .  D
C565        H567   1.087       .  S
C566        H568   1.085       .  S
C569        C673   1.479       .  S
C569        C570   1.345       .  D
C569        H571   1.087       .  S
C570        H572   1.087       .  S
C573        C574   1.342       .  D
C573        H575   1.087       .  S
C574        H576   1.086       .  S
C577       C1190   1.347       .  D
C577        H579   1.087       .  S
C578       C1189   1.344       .  D
C578        H580   1.087       .  S
C581       C1194   1.337       .  D
C581        H583   1.087       .  S
C582       C1193   1.339       .  D
C582        H584   1.087       .  S
C585        C586   1.346       .  D
C585        H587   1.085       .  S
C586        H588   1.086       .  S
C589        C590   1.347       .  D
C589        H591   1.086       .  S
C590        H592   1.087       .  S
C593        C594   1.341       .  D
C593        H595   1.087       .  S
C594        H596   1.087       .  S
C597        C598   1.336       .  D
C597        H599   1.087       .  S
C598        H600   1.086       .  S
C601        C602   1.357       .  D
C601        H603   1.087       .  S
C602        H604   1.086       .  S
C605        C606   1.331       .  D
C605        H607   1.088       .  S
C606        H608   1.088       .  S
C609        C610   1.353       .  D
C609        H611   1.086       .  S
C610        H612   1.086       .  S
O613        C628   1.257       .  A
O613       Al621   1.884       .  S
C614        O624   1.271       .  A
C614        O615   1.265       .  A
C614       C1209   1.466       .  S
O615       Al617   1.912       .  S
O616        C618   1.259       .  A
O616       Al617   1.894       .  S
Al617       O625   1.928       .  S
Al617       O627   1.923       .  S
Al617       O626   1.777       .  S
C618        O631   1.262       .  A
C618       C1205   1.474       .  S
O619        C629   1.261       .  A
O619       Al621   1.920       .  S
O620        C633   1.271       .  A
O620       Al630   1.915       .  S
Al621       O634   1.912       .  S
Al621       O631   1.922       .  S
Al621       O626   1.778       .  S
O622        C629   1.255       .  A
O622       Al630   1.896       .  S
O623        C632   1.255       .  A
O623       Al630   1.903       .  S
O624       Al630   1.906       .  S
O625        C632   1.264       .  A
O626       Al630   1.781       .  S
O627        C628   1.263       .  A
C628       C1202   1.474       .  S
C629       C1221   1.469       .  S
C632       C1213   1.477       .  S
C633        O634   1.267       .  A
C633       C1217   1.469       .  S
O635        C650   1.274       .  A
O635       Al643   1.930   1_655  S
C636        O646   1.275       .  A
C636        O637   1.262       .  A
C636       C1186   1.475       .  S
O637       Al639   1.876       .  S
O638        C640   1.247       .  A
O638       Al639   1.868       .  S
Al639       O647   1.910   1_455  S
Al639       O649   1.864   1_455  S
Al639       O648   1.789   1_455  S
C640        O653   1.250       .  A
C640       C1189   1.466       .  S
O641        C651   1.264       .  A
O641       Al643   1.913       .  S
O642        C655   1.258       .  A
O642       Al652   1.908       .  S
Al643       O656   1.890   1_455  S
Al643       O653   1.900       .  S
Al643       O648   1.796   1_455  S
O644        C651   1.262       .  A
O644       Al652   1.892   1_455  S
O645        C654   1.256       .  A
O645       Al652   1.919       .  S
O646       Al652   1.968   1_455  S
O647        C654   1.254       .  A
O648       Al652   1.787       .  S
O649        C650   1.264       .  A
C650       C1194   1.456   1_556  S
C651       C1206   1.472       .  S
C654       C1198   1.472       .  S
C655        O656   1.251       .  A
C655       C1182   1.477       .  S
O657        C672   1.267       .  A
O657       Al665   1.908       .  S
C658        O668   1.254       .  A
C658        O659   1.270       .  A
C658       C1166   1.463       .  S
O660        C662   1.255       .  A
O660       Al661   1.911       .  S
Al661       O669   1.887       .  S
Al661       O671   1.942       .  S
Al661       O670   1.775       .  S
C662        O675   1.262       .  A
C662       C1169   1.485       .  S
O663        C673   1.267       .  A
O663       Al665   1.892       .  S
O664        C677   1.261       .  A
Al665       O678   1.925       .  S
Al665       O675   1.938       .  S
Al665       O670   1.780       .  S
O666       Al674   1.948       .  S
O667        C676   1.265       .  A
O667       Al674   1.933       .  S
O668       Al674   1.864       .  S
O671        C672   1.277       .  A
C672       C1173   1.485       .  S
C676       C1177   1.484       .  S
C677        O678   1.262       .  A
C677       C1201   1.473   1_655  S
O679        C694   1.255       .  A
O679       Al687   1.884       .  S
C680        O690   1.264       .  A
C680        O681   1.277       .  A
C680       C1178   1.483       .  S
O681       Al683   1.969       .  S
O682        C684   1.250       .  A
O682       Al683   1.863       .  S
Al683       O691   1.900       .  S
Al683       O693   1.950       .  S
Al683       O692   1.781       .  S
C684        O697   1.275       .  A
C684       C1161   1.495   1_655  S
O685        C695   1.263       .  A
O685       Al687   1.938       .  S
O686        C699   1.266       .  A
O686       Al696   1.881       .  S
Al687       O700   1.972       .  S
Al687       O697   1.975       .  S
Al687       O692   1.782       .  S
O688        C695   1.252       .  A
O688       Al696   1.888       .  S
O689        C698   1.258       .  A
O689       Al696   1.922       .  S
O690       Al696   1.885       .  S
O691        C698   1.253       .  A
O692       Al696   1.781       .  S
O693        C694   1.270       .  A
C694       C1149   1.491       .  S
C695       C1174   1.477       .  S
C698       C1157   1.479       .  S
C699        O700   1.279       .  A
C699       C1153   1.472       .  S
O701       Al709   1.859       .  S
C702        O712   1.271       .  A
C702        O703   1.282       .  A
C702       C1222   1.466       .  S
O703       Al705   1.962       .  S
O704        C706   1.251       .  A
O704       Al705   1.868       .  S
Al705       O713   1.909       .  S
Al705       O715   1.954       .  S
Al705       O714   1.776       .  S
C706        O719   1.273       .  A
C706       C1162   1.495       .  S
O707        C717   1.257       .  A
O707       Al709   1.892       .  S
O708        C721   1.267       .  A
Al709       O722   1.980       .  S
O710        C717   1.257       .  A
O711        C720   1.246       .  A
O711       Al718   1.874       .  S
O712       Al718   1.883       .  S
O713        C720   1.256       .  A
O714       Al718   1.780       .  S
O715        C716   1.271       .  A
C717       C1218   1.475       .  S
C720       C1145   1.458       .  S
C721        O722   1.283       .  A
C721       C1141   1.479       .  S
O723        C738   1.253       .  A
O723       Al731   1.877   1_655  S
C724        O734   1.261       .  A
C724        O725   1.278       .  A
C724       C1129   1.476       .  S
O725       Al727   1.976   1_455  S
O726        C728   1.251       .  A
O726       Al727   1.859   1_455  S
Al727       O735   1.903       .  S
Al727       O737   1.958       .  S
Al727       O736   1.779   1_655  S
C728        O741   1.273       .  A
C728       C1137   1.485       .  S
O729        C739   1.255       .  A
O729       Al731   1.902       .  S
O730        C743   1.263       .  A
O730       Al740   1.864   1_655  S
Al731       O744   1.966   1_455  S
Al731       O741   1.962       .  S
Al731       O736   1.777       .  S
O732        C739   1.258       .  A
O732       Al740   1.915       .  S
O733        C742   1.263       .  A
O733       Al740   1.937   1_655  S
O734       Al740   1.869       .  S
O735        C742   1.256       .  A
O736       Al740   1.781       .  S
O737        C738   1.271       .  A
C738       C1150   1.492       .  S
C739       C1133   1.477       .  S
C742       C1125   1.484       .  S
C743        O744   1.277       .  A
C743       C1121   1.464       .  S
O745        C760   1.257       .  A
O745       Al753   1.875       .  S
C746        O756   1.277       .  A
C746        O747   1.278       .  A
C746       C1105   1.468       .  S
O747       Al749   1.940       .  S
O748        C750   1.258       .  A
O748       Al749   1.885       .  S
Al749       O757   1.933       .  S
Al749       O759   1.939       .  S
Al749       O758   1.776       .  S
C750        O763   1.258       .  A
C750       C1117   1.473       .  S
O751        C761   1.252       .  A
O751       Al753   1.916       .  S
O752        C765   1.279       .  A
O752       Al762   1.892       .  S
Al753       O766   1.926       .  S
Al753       O763   1.903       .  S
Al753       O758   1.780       .  S
O754        C761   1.250       .  A
O754       Al762   1.914       .  S
O755        C764   1.250       .  A
O755       Al762   1.918       .  S
O756       Al762   1.887       .  S
O757        C764   1.258       .  A
O758       Al762   1.779       .  S
O759        C760   1.267       .  A
C760       C1113   1.491       .  S
C761       C1142   1.476       .  S
C764       C1109   1.488       .  S
C765        O766   1.274       .  A
C765       C1146   1.465       .  S
O767        C782   1.270       .  A
O767       Al775   1.934   1_545  S
C768        O778   1.272       .  A
C768        O769   1.266       .  A
C768       C1134   1.468       .  S
O769       Al771   1.891       .  S
O770        C772   1.254       .  A
O770       Al771   1.898       .  S
Al771       O779   1.903   1_565  S
Al771       O781   1.892   1_565  S
Al771       O780   1.786   1_565  S
C772        O785   1.259       .  A
C772       C1130   1.481       .  S
O773        C783   1.266       .  A
O773       Al775   1.941       .  S
O774        C787   1.262       .  A
O774       Al784   1.923       .  S
Al775       O788   1.874   1_565  S
Al775       O785   1.921       .  S
Al775       O780   1.789   1_565  S
O776        C783   1.258       .  A
O776       Al784   1.884   1_565  S
O777        C786   1.259       .  A
O777       Al784   1.925       .  S
O778       Al784   1.949   1_565  S
O779        C786   1.254       .  A
O780       Al784   1.785       .  S
O781        C782   1.268       .  A
C782       C1098   1.482   1_556  S
C783       C1114   1.475       .  S
C786       C1102   1.473       .  S
C787        O788   1.253       .  A
C787       C1093   1.476       .  S
O789        C804   1.276       .  A
O789       Al797   1.936       .  S
C790        O800   1.267       .  A
C790        O791   1.256       .  A
C790       C1078   1.465       .  S
O791       Al793   1.866       .  S
O792       Al793   1.908       .  S
Al793       O801   1.939       .  S
Al793       O802   1.779       .  S
C794        O807   1.251       .  A
C794       C1081   1.469       .  S
O795        C805   1.266       .  A
O796        C809   1.263       .  A
O796       Al806   1.925       .  S
Al797       O810   1.869       .  S
Al797       O807   1.907       .  S
O798        C805   1.255       .  A
O798       Al806   1.867       .  S
O799        C808   1.256       .  A
O799       Al806   1.886       .  S
O800       Al806   1.948       .  S
O801        C808   1.267       .  A
O802       Al806   1.783       .  S
O803        C804   1.266       .  A
C804       C1085   1.455       .  S
C805       C1118   1.461       .  S
C808       C1089   1.476       .  S
O811        C826   1.256       .  A
O811       Al819   1.874   1_565  S
C812        O822   1.261       .  A
C812        O813   1.273       .  A
C812       C1197   1.480       .  S
O813       Al815   1.954   1_545  S
O814        C816   1.251       .  A
O814       Al815   1.874   1_545  S
Al815       O823   1.905       .  S
Al815       O825   1.957       .  S
Al815       O824   1.779       .  S
C816        O829   1.264       .  A
C816       C1069   1.479       .  S
O817        C827   1.255       .  A
O817       Al819   1.895       .  S
O818        C831   1.261       .  A
O818       Al828   1.874       .  S
Al819       O832   1.953   1_545  S
Al819       O829   1.936       .  S
Al819       O824   1.784   1_545  S
O820        C827   1.260       .  A
O820       Al828   1.908   1_545  S
O821        C830   1.257       .  A
O821       Al828   1.904       .  S
O822       Al828   1.866   1_545  S
O823        C830   1.257       .  A
O824       Al828   1.785       .  S
O825        C826   1.274       .  A
C826       C1074   1.486       .  S
C827       C1193   1.465       .  S
C830       C1065   1.477       .  S
C831        O832   1.271       .  A
C831       C1061   1.465       .  S
O833       Al841   1.867       .  S
C834        O844   1.258       .  A
C834        O835   1.278       .  A
C834       C1110   1.490       .  S
O835       Al837   1.978       .  S
O836        C838   1.248       .  A
O836       Al837   1.853       .  S
Al837       O845   1.879       .  S
Al837       O847   1.978       .  S
Al837       O846   1.771       .  S
C838        O851   1.272       .  A
C838       C1049   1.482       .  S
O839        C849   1.258       .  A
O839       Al841   1.896       .  S
O840        C853   1.263       .  A
Al841       O854   1.957       .  S
O842        C849   1.254       .  A
O843        C852   1.263       .  A
O843       Al850   1.932       .  S
O844       Al850   1.881       .  S
O845        C852   1.253       .  A
O846       Al850   1.777       .  S
O847        C848   1.276       .  A
C849       C1106   1.461       .  S
C852       C1058   1.470       .  S
C853        O854   1.275       .  A
C853       C1053   1.465       .  S
O855        C870   1.251       .  A
O855       Al863   1.866       .  S
C856        O866   1.269       .  A
C856        O857   1.274       .  A
C856       C1082   1.461       .  S
O857       Al859   1.946       .  S
O858        C860   1.253       .  A
O858       Al859   1.859       .  S
Al859       O867   1.901       .  S
Al859       O869   1.930       .  S
Al859       O868   1.778       .  S
C860        O873   1.273       .  A
C860       C1050   1.481       .  S
O861        C871   1.251       .  A
O861       Al863   1.902       .  S
O862        C875   1.269       .  A
O862       Al872   1.891       .  S
Al863       O876   1.971       .  S
Al863       O873   1.951       .  S
Al863       O868   1.774       .  S
O864        C871   1.251       .  A
O864       Al872   1.893       .  S
O865        C874   1.252       .  A
O865       Al872   1.901       .  S
O866       Al872   1.889       .  S
O867        C874   1.258       .  A
O868       Al872   1.779       .  S
O869        C870   1.263       .  A
C870       C1070   1.480       .  S
C871       C1077   1.468       .  S
C874       C1165   1.463       .  S
C875        O876   1.281       .  A
C875       C1170   1.485       .  S
O877        C892   1.257       .  A
O877       Al885   1.878       .  S
C878        O888   1.257       .  A
C878        O879   1.271       .  A
C878       C1090   1.465       .  S
O879       Al881   1.952       .  S
O880        C882   1.253       .  A
O880       Al881   1.879       .  S
Al881       O889   1.893       .  S
Al881       O891   1.948       .  S
Al881       O890   1.778       .  S
C882        O895   1.267       .  A
C882       C1042   1.481       .  S
O883        C893   1.256       .  A
O883       Al885   1.893       .  S
O884        C897   1.258       .  A
O884       Al894   1.871       .  S
Al885       O898   1.965       .  S
Al885       O895   1.946       .  S
Al885       O890   1.780       .  S
O886        C893   1.262       .  A
O886       Al894   1.910       .  S
O887        C896   1.259       .  A
O887       Al894   1.904       .  S
O888       Al894   1.864       .  S
O889        C896   1.256       .  A
O890       Al894   1.779       .  S
O891        C892   1.271       .  A
C892       C1045   1.479       .  S
C893       C1086   1.466       .  S
C896       C1037   1.469       .  S
C897        O898   1.272       .  A
C897       C1033   1.471       .  S
O899        C914   1.248       .  A
O899       Al907   1.856       .  S
C900        O910   1.263       .  A
C900        O901   1.273       .  A
C900       C1190   1.466       .  S
O901       Al903   1.955       .  S
O902        C904   1.255       .  A
O902       Al903   1.872       .  S
Al903       O911   1.905       .  S
Al903       O913   1.944       .  S
Al903       O912   1.786       .  S
C904        O917   1.271       .  A
C904       C1029   1.479       .  S
O905        C915   1.250       .  A
O905       Al907   1.891       .  S
O906        C919   1.267       .  A
O906       Al916   1.876       .  S
Al907       O920   1.951       .  S
Al907       O917   1.942       .  S
Al907       O912   1.777       .  S
O908        C915   1.256       .  A
O908       Al916   1.918       .  S
O909        C918   1.264       .  A
O909       Al916   1.941       .  S
O910       Al916   1.876       .  S
O911        C918   1.257       .  A
O912       Al916   1.785       .  S
O913        C914   1.265       .  A
C914       C1041   1.484       .  S
C915       C1185   1.474       .  S
C918       C1097   1.484       .  S
C919        O920   1.276       .  A
C919       C1101   1.479       .  S
O921        C936   1.254       .  A
O921       Al929   1.866       .  S
C922        O932   1.259       .  A
C922        O923   1.273       .  A
C922       C1214   1.474       .  S
O923       Al925   1.957       .  S
O924       Al925   1.854       .  S
Al925       O933   1.879       .  S
C926        O939   1.269       .  A
O927        C937   1.260       .  A
O927       Al929   1.901       .  S
O928        C941   1.264       .  A
O928       Al938   1.877       .  S
Al929       O942   1.950       .  S
Al929       O939   1.954       .  S
Al929       O934   1.775       .  S
O930        C937   1.254       .  A
O930       Al938   1.892       .  S
O931        C940   1.263       .  A
O933        C940   1.253       .  A
O934       Al938   1.780       .  S
O935        C936   1.269       .  A
C936       C1046   1.483       .  S
C937       C1210   1.464       .  S
C940       C1025   1.466       .  S
C941        O942   1.273       .  A
C941       C1021   1.462       .  S
O943        C958   1.273       .  A
O943       Al951   1.963       .  S
C944        O954   1.273       .  A
C944        O945   1.259       .  A
C944       C1057   1.465       .  S
O945       Al947   1.860       .  S
O946        C948   1.263       .  A
O946       Al947   1.921       .  S
Al947       O955   1.918       .  S
Al947       O957   1.858       .  S
Al947       O956   1.776       .  S
C948        O961   1.257       .  A
C948       C1054   1.478       .  S
O949        C959   1.271       .  A
O949       Al951   1.953       .  S
O950        C963   1.271       .  A
O950       Al960   1.953       .  S
Al951       O964   1.880       .  S
Al951       O961   1.901       .  S
Al951       O956   1.780       .  S
O952        C959   1.254       .  A
O952       Al960   1.874       .  S
O953        C962   1.256       .  A
O953       Al960   1.897       .  S
O954       Al960   1.964       .  S
O955        C962   1.262       .  A
O956       Al960   1.778       .  S
O957        C958   1.259       .  A
C958       C1026   1.463       .  S
C959       C1013   1.484       .  S
C962       C1022   1.475       .  S
C963        O964   1.255       .  A
C963       C1017   1.485       .  S
O965        C980   1.269       .  A
O965       Al973   1.944       .  S
C966        O976   1.274       .  A
C966        O967   1.260       .  A
C966       C1158   1.471       .  S
O968        C970   1.266       .  A
O968       Al969   1.941       .  S
Al969       O977   1.947       .  S
Al969       O979   1.872       .  S
Al969       O978   1.780       .  S
C970        O983   1.257       .  A
C970       C1154   1.481       .  S
O971        C981   1.267       .  A
O971       Al973   1.943       .  S
O972        C985   1.272       .  A
Al973       O986   1.872       .  S
Al973       O983   1.894       .  S
Al973       O978   1.782       .  S
O974       Al982   1.870       .  S
O975        C984   1.253       .  A
O975       Al982   1.888       .  S
O976       Al982   1.962       .  S
O979        C980   1.261       .  A
C980       C1038   1.459       .  S
C984       C1034   1.478       .  S
C985        O986   1.254       .  A
C985       C1018   1.487       .  S
O987       C1002   1.273       .  A
O987       Al995   1.960       .  S
C988        O998   1.269       .  A
C988        O989   1.257       .  A
C988       C1066   1.468       .  S
O989       Al991   1.873       .  S
O990        C992   1.262       .  A
O990       Al991   1.926       .  S
Al991       O999   1.938       .  S
Al991      O1001   1.870       .  S
Al991      O1000   1.781       .  S
C992       O1005   1.255       .  A
C992       C1062   1.471       .  S
O993       C1003   1.274       .  A
O993       Al995   1.967       .  S
O994       C1007   1.268       .  A
O994      Al1004   1.951       .  S
Al995      O1008   1.867       .  S
Al995      O1005   1.884       .  S
Al995      O1000   1.775       .  S
O996       C1003   1.254       .  A
O996      Al1004   1.867       .  S
O997       C1006   1.256       .  A
O997      Al1004   1.883       .  S
O998      Al1004   1.954       .  S
O999       C1006   1.268       .  A
O1000     Al1004   1.782       .  S
O1001      C1002   1.257       .  A
C1002      C1126   1.472   1_556  S
C1003      C1014   1.485       .  S
C1006      C1122   1.474       .  S
C1007      O1008   1.252       .  A
C1007      C1010   1.481       .  S
C1009      C1010   1.356       .  D
C1010      H1012   1.086       .  S
C1013      C1014   1.360       .  D
C1013      H1015   1.086       .  S
C1014      H1016   1.086       .  S
C1017      C1018   1.359       .  D
C1017      H1019   1.085       .  S
C1018      H1020   1.085       .  S
C1021      C1022   1.341       .  D
C1021      H1023   1.086       .  S
C1022      H1024   1.087       .  S
C1025      C1026   1.339       .  D
C1025      H1027   1.088       .  S
C1026      H1028   1.086       .  S
C1029      C1030   1.359       .  D
C1029      H1031   1.086       .  S
C1030      H1032   1.085       .  S
C1033      C1034   1.341       .  D
C1033      H1035   1.086       .  S
C1034      H1036   1.088       .  S
C1037      C1038   1.340       .  D
C1037      H1039   1.088       .  S
C1038      H1040   1.086       .  S
C1041      C1042   1.358       .  D
C1041      H1043   1.086       .  S
C1042      H1044   1.086       .  S
C1045      C1046   1.356       .  D
C1045      H1047   1.085       .  S
C1046      H1048   1.085       .  S
C1049      C1050   1.362   1_565  D
C1049      H1051   1.085   1_565  S
C1050      H1052   1.085   1_545  S
C1053      C1054   1.341       .  D
C1053      H1055   1.086       .  S
C1054      H1056   1.087       .  S
C1057      C1058   1.340       .  D
C1057      H1059   1.086       .  S
C1058      H1060   1.088       .  S
C1061      H1063   1.086       .  S
C1062      H1064   1.088   1_556  S
C1065      C1066   1.346       .  D
C1065      H1067   1.087       .  S
C1066      H1068   1.086       .  S
C1069      C1070   1.355       .  D
C1069      H1071   1.086       .  S
C1070      H1072   1.086       .  S
C1073      C1074   1.361       .  D
C1073      H1075   1.086       .  S
C1074      H1076   1.086       .  S
C1077      C1078   1.344       .  D
C1077      H1079   1.087       .  S
C1078      H1080   1.086       .  S
C1081      C1082   1.344       .  D
C1081      H1083   1.086       .  S
C1082      H1084   1.086       .  S
C1085      C1086   1.337       .  D
C1085      H1087   1.087       .  S
C1086      H1088   1.088       .  S
C1089      C1090   1.340       .  D
C1089      H1091   1.088       .  S
C1090      H1092   1.086       .  S
C1093      C1094   1.351       .  D
C1093      H1095   1.086       .  S
C1094      H1096   1.087   1_556  S
C1097      H1099   1.087       .  S
C1098      H1100   1.087       .  S
C1101      C1102   1.341       .  D
C1101      H1103   1.086       .  S
C1102      H1104   1.087       .  S
C1105      C1106   1.338       .  D
C1105      H1107   1.087       .  S
C1106      H1108   1.087       .  S
C1109      C1110   1.360       .  D
C1109      H1111   1.087       .  S
C1110      H1112   1.086       .  S
C1113      C1114   1.353       .  D
C1113      H1115   1.086       .  S
C1114      H1116   1.086       .  S
C1117      C1118   1.342   1_565  D
C1117      H1119   1.087       .  S
C1118      H1120   1.087       .  S
C1121      C1122   1.338       .  D
C1121      H1123   1.086       .  S
C1122      H1124   1.088       .  S
C1125      H1127   1.087       .  S
C1126      H1128   1.086       .  S
C1130      H1132   1.088   1_556  S
C1133      C1134   1.342       .  D
C1133      H1135   1.087       .  S
C1134      H1136   1.086       .  S
C1137      C1138   1.363       .  D
C1137      H1139   1.085       .  S
C1138      H1140   1.085       .  S
C1141      C1142   1.351       .  D
C1141      H1143   1.086       .  S
C1142      H1144   1.086       .  S
C1145      C1146   1.332       .  D
C1145      H1147   1.087       .  S
C1146      H1148   1.087       .  S
C1149      C1150   1.361       .  D
C1149      H1151   1.086       .  S
C1150      H1152   1.085       .  S
C1153      C1154   1.342       .  D
C1153      H1155   1.086       .  S
C1154      H1156   1.088       .  S
C1157      C1158   1.345       .  D
C1157      H1159   1.088       .  S
C1158      H1160   1.086       .  S
C1161      C1162   1.368       .  D
C1161      H1163   1.087       .  S
C1162      H1164   1.086   1_455  S
C1165      C1166   1.332       .  D
C1165      H1167   1.088       .  S
C1166      H1168   1.088       .  S
C1169      C1170   1.352       .  D
C1169      H1171   1.087       .  S
C1170      H1172   1.085       .  S
C1173      C1174   1.340       .  D
C1173      H1175   1.086       .  S
C1174      H1176   1.088       .  S
C1177      C1178   1.353       .  D
C1177      H1179   1.087       .  S
C1178      H1180   1.085       .  S
C1181      C1182   1.348       .  D
C1181      H1183   1.087       .  S
C1182      H1184   1.087       .  S
C1185      C1186   1.343       .  D
C1185      H1187   1.087       .  S
C1186      H1188   1.086       .  S
C1189      H1191   1.087   1_556  S
C1190      H1192   1.086       .  S
C1193      H1195   1.087       .  S
C1194      H1196   1.087       .  S
C1197      C1198   1.345       .  D
C1197      H1199   1.085       .  S
C1198      H1200   1.087       .  S
C1201      C1202   1.346       .  D
C1201      H1203   1.086       .  S
C1202      H1204   1.087       .  S
C1205      C1206   1.341       .  D
C1205      H1207   1.087       .  S
C1206      H1208   1.087       .  S
C1209      C1210   1.334       .  D
C1209      H1211   1.087       .  S
C1210      H1212   1.086       .  S
C1213      C1214   1.353       .  D
C1213      H1215   1.086       .  S
C1214      H1216   1.086       .  S
C1217      C1218   1.339       .  D
C1217      H1219   1.087       .  S
C1218      H1220   1.086       .  S
C1221      C1222   1.348       .  D
C1221      H1223   1.086       .  S
C1222      H1224   1.086       .  S
