geometry optimzed in LAMMPS
_audit_creation_date              2020-12-01 
_audit_creation_method            'lammps2cif' 
_symmetry_space_group_name_H-M    'P1' 
_symmetry_Int_Tables_number       1 
_symmetry_cell_setting            triclinic 
loop_ 
_symmetry_equiv_pos_as_xyz 
  x,y,z 
_cell_length_a                    46.58744896 
_cell_length_b                    46.71643835951442 
_cell_length_c                    46.647564694050224 
_cell_angle_alpha                 90.1893659978806 
_cell_angle_beta                  90.05406081477248 
_cell_angle_gamma                 90.09198888965575 
loop_ 
_atom_site_label 
_atom_site_type_symbol 
_atom_site_fract_x 
_atom_site_fract_y 
_atom_site_fract_z 
_atom_site_charge 
O1          O  0.24488935  0.03274267  0.24085964    -0.81700
C2          C  0.26809186  0.96216957  0.14503274     0.97700
O3          O  0.24631385  0.97805900  0.14744044    -0.70800
O4          O  0.22316519  0.96423812  0.19676106    -0.74400
Al5        Al  0.23344237  0.99957906  0.18017261     1.49000
C6          C  0.22096226  0.96000770  0.22335881     0.92900
O7          O  0.29242192  0.96609656  0.23631330    -0.80600
O8          O  0.31077951  0.03686737  0.19535407    -0.74200
Al9        Al  0.26868177  0.99957020  0.23630182     1.90100
O10         O  0.32205353  0.97972787  0.20275033    -0.73200
O11         O  0.28390936  0.02681430  0.14786708    -0.73100
O12         O  0.29089486  0.96821635  0.15818588    -0.78700
O13         O  0.24000548  0.03517935  0.16237206    -0.76900
O14         O  0.26710023  0.00067494  0.19815772    -1.13100
O15         O  0.21283686  0.02016733  0.20869258    -0.72300
C16         C  0.21997938  0.03471118  0.23037041     0.98500
C17         C  0.31578370  0.96289428  0.22294968     0.94800
Al18       Al  0.29923144  0.00270398  0.17764494     1.55600
O19         O  0.23612826  0.97434896  0.24083522    -0.76900
C20         C  0.26166923  0.04230959  0.14794395     0.99000
C21         C  0.31328746  0.04136178  0.22183991     0.93900
O22         O  0.30112195  0.02504069  0.23974398    -0.82200
O23         O  0.75960957  0.97241803  0.23701676    -0.81700
C24         C  0.73359864  0.04016950  0.14070557     0.97700
O25         O  0.75575872  0.02492246  0.14315678    -0.70800
O26         O  0.77772687  0.04109177  0.19239281    -0.74400
Al27       Al  0.76944990  0.00483222  0.17595649     1.49000
C28         C  0.77867005  0.04607443  0.21899265     0.92900
O29         O  0.70774548  0.03562223  0.23076156    -0.80600
O30         O  0.69388436  0.96316805  0.19038764    -0.74200
Al31       Al  0.73352291  0.00373377  0.23155289     1.90100
O32         O  0.67939646  0.01952020  0.19708761    -0.73200
O33         O  0.72094438  0.97522511  0.14286007    -0.73100
O34         O  0.71074840  0.03318941  0.15332985    -0.78700
O35         O  0.76495963  0.96877542  0.15806551    -0.76900
O36         O  0.73566688  0.00204839  0.19351396    -1.13100
O37         O  0.79089553  0.98581321  0.20467147    -0.72300
C38         C  0.78465382  0.97152857  0.22665258     0.98500
C39         C  0.68448811  0.03713462  0.21693259     0.94800
Al40       Al  0.70390421  0.99808777  0.17255814     1.55600
O41         O  0.76389930  0.03115903  0.23609988    -0.76900
C42         C  0.74406785  0.96113945  0.14265397     0.99000
C43         C  0.69145259  0.95894993  0.21699854     0.93900
O44         O  0.70283363  0.97613095  0.23477702    -0.82200
O45         O  0.24550419  0.25093324  0.04309408    -0.81700
C46         C  0.14828090  0.26647980  0.97094262     0.97700
O47         O  0.15215661  0.24570952  0.98778796    -0.70800
O48         O  0.20167756  0.22141254  0.97932489    -0.74400
Al49       Al  0.18371317  0.23592974  0.01225561     1.49000
C50         C  0.22828178  0.22003431  0.97517329     0.92900
O51         O  0.23926440  0.29325203  0.97352253    -0.80600
O52         O  0.19765583  0.31547630  0.04317576    -0.74200
Al53       Al  0.23972535  0.27208707  0.00860633     1.90100
O54         O  0.20506784  0.32295107  0.98536695    -0.73200
O55         O  0.14974558  0.28823332  0.03427214    -0.73100
O56         O  0.16062964  0.29013822  0.97547625    -0.78700
O57         O  0.16395646  0.24536643  0.04594432    -0.76900
O58         O  0.20127979  0.26969728  0.01013516    -1.13100
O59         O  0.21126672  0.21921400  0.03661294    -0.72300
C60         C  0.23375438  0.22738034  0.04915677     0.98500
C61         C  0.22541866  0.31600847  0.96898849     0.94800
Al62       Al  0.18009511  0.30149222  0.00957888     1.55600
O63         O  0.24525315  0.23804333  0.98618841    -0.76900
C64         C  0.14847424  0.26679247  0.05057049     0.99000
C65         C  0.22415977  0.31826478  0.04798201     0.93900
O66         O  0.24233358  0.30614020  0.03186138    -0.82200
O67         O  0.23735959  0.75218235  0.97740383    -0.81700
C68         C  0.14203557  0.72979503  0.04950772     0.97700
O69         O  0.14482222  0.75113464  0.03328946    -0.70800
O70         O  0.19512318  0.77240733  0.04819738    -0.74400
Al71       Al  0.17809929  0.76342026  0.01251628     1.49000
C72         C  0.22197765  0.77501520  0.05103571     0.92900
O73         O  0.23478922  0.70411811  0.04330186    -0.80600
O74         O  0.19068167  0.68517508  0.97545162    -0.74200
Al75       Al  0.23366042  0.72782914  0.01030655     1.90100
O76         O  0.19912120  0.67551644  0.03259939    -0.73200
O77         O  0.14469289  0.71412229  0.98532654    -0.73100
O78         O  0.15536784  0.70710809  0.04402860    -0.78700
O79         O  0.16071797  0.75729976  0.97669173    -0.76900
O80         O  0.19549892  0.72967270  0.01070500    -1.13100
O81         O  0.20677937  0.78422579  0.99282458    -0.72300
C82         C  0.22803582  0.77757066  0.97757631     0.98500
C83         C  0.22054575  0.68166526  0.04804837     0.94800
Al84       Al  0.17416219  0.69808264  0.00947479     1.55600
O85         O  0.23901867  0.76003975  0.03595813    -0.76900
C86         C  0.14631010  0.73575908  0.96905929     0.99000
C87         C  0.21683860  0.68202979  0.96994646     0.93900
O88         O  0.23578206  0.69542033  0.98423893    -0.82200
O89         O  0.97060940  0.23373253  0.76427268    -0.81700
C90         C  0.03889867  0.13596286  0.74205442     0.97700
O91         O  0.02184043  0.13867263  0.76296589    -0.70800
O92         O  0.03455018  0.18677875  0.78934570    -0.74400
Al93       Al  0.99964685  0.17105469  0.77536159     1.49000
C94         C  0.04033590  0.21313056  0.79117212     0.92900
O95         O  0.03869873  0.22692430  0.71861523    -0.80600
O96         O  0.96715197  0.18800208  0.69711057    -0.74200
Al97       Al  0.00426085  0.22772224  0.74138543     1.90100
O98         O  0.02416759  0.19440454  0.68821563    -0.73200
O99         O  0.97603779  0.13909383  0.72281055    -0.73100
O100        O  0.03445944  0.14955273  0.71919370    -0.78700
O101        O  0.96400039  0.15423165  0.76546021    -0.76900
O102        O  0.00151922  0.18962546  0.74226719    -1.13100
O103        O  0.97773108  0.19902701  0.79497020    -0.72300
C104        C  0.96511558  0.22173931  0.78788347     0.98500
C105        C  0.04145495  0.21403197  0.69491660     0.94800
Al106      Al  0.00057064  0.16946540  0.70965157     1.55600
O107        O  0.02831561  0.23094960  0.77470532    -0.76900
C108        C  0.95847201  0.13989832  0.74328206     0.99000
C109        C  0.96398259  0.21466121  0.69449916     0.93900
O110        O  0.97991829  0.23204494  0.70814767    -0.82200
O111        O  0.03152452  0.24384062  0.25237737    -0.81700
C112        C  0.96019770  0.14830364  0.27252931     0.97700
O113        O  0.97690110  0.15041264  0.25124494    -0.70800
O114        O  0.96421771  0.20031759  0.22965904    -0.74400
Al115      Al  0.99932908  0.18298016  0.23941365     1.49000
C116        C  0.95848982  0.22666157  0.23035679     0.92900
O117        O  0.96709797  0.23671395  0.30220866    -0.80600
O118        O  0.03787202  0.19373837  0.31592464    -0.74200
Al119      Al  0.99956167  0.23761335  0.27720966     1.90100
O120        O  0.98165188  0.20213603  0.32990877    -0.73200
O121        O  0.02490185  0.14723847  0.28747846    -0.73100
O122        O  0.96680527  0.15999916  0.29603058    -0.78700
O123        O  0.03489832  0.16445490  0.24534866    -0.76900
O124        O  0.00057056  0.19963352  0.27369146    -1.13100
O125        O  0.02079986  0.21149706  0.21991097    -0.72300
C126        C  0.03493474  0.23313048  0.22778254     0.98500
C127        C  0.96481455  0.22264443  0.32511489     0.94800
Al128      Al  0.00261376  0.17754811  0.30472813     1.55600
O129        O  0.97271751  0.24351641  0.24629791    -0.76900
C130        C  0.04130048  0.14832966  0.26594170     0.99000
C131        C  0.04324756  0.22002664  0.31930948     0.93900
O132        O  0.02687484  0.23887483  0.30854271    -0.82200
O133        O  0.96866212  0.75992366  0.25630703    -0.81700
C134        C  0.03874214  0.85715837  0.27364997     0.97700
O135        O  0.02251827  0.85333670  0.25230771    -0.70800
O136        O  0.03823524  0.80273581  0.23379929    -0.74400
Al137      Al  0.00219829  0.81909634  0.24149959     1.49000
C138        C  0.04233605  0.77608411  0.23279845     0.92900
O139        O  0.03455140  0.76695018  0.30336524    -0.80600
O140        O  0.96440268  0.80920962  0.31954426    -0.74200
Al141      Al  0.00156157  0.76567093  0.27987423     1.90100
O142        O  0.02201426  0.80303114  0.33074492    -0.73200
O143        O  0.97369216  0.85451979  0.28878427    -0.73100
O144        O  0.03299257  0.84534259  0.29710589    -0.78700
O145        O  0.96604989  0.83616820  0.24624231    -0.76900
O146        O  0.00064116  0.80355594  0.27609440    -1.13100
O147        O  0.98289511  0.78871907  0.22209975    -0.72300
C148        C  0.96789827  0.76792274  0.23055493     0.98500
C149        C  0.03849869  0.78227824  0.32527731     0.94800
Al150      Al  0.99844827  0.82628213  0.30660448     1.55600
O151        O  0.02731229  0.75929479  0.24799663    -0.76900
C152        C  0.95838340  0.85249725  0.26633030     0.99000
C153        C  0.95988567  0.78301120  0.32369978     0.93900
O154        O  0.97581547  0.76427408  0.31219647    -0.82200
O155        O  0.76536970  0.74975012  0.04298801    -0.81700
C156        C  0.85976191  0.72426351  0.97190717     0.97700
O157        O  0.85900386  0.74554600  0.98870899    -0.70800
O158        O  0.81091609  0.77148807  0.97615395    -0.74400
Al159      Al  0.82727325  0.75936377  0.01102714     1.49000
C160        C  0.78438581  0.77545417  0.97274769     0.92900
O161        O  0.76994066  0.70428138  0.97544666    -0.80600
O162        O  0.80902963  0.68274550  0.04702371    -0.74200
Al163      Al  0.76971788  0.72654152  0.00953870     1.90100
O164        O  0.80091130  0.67219876  0.99011374    -0.73200
O165        O  0.85807639  0.70750651  0.03675122    -0.73100
O166        O  0.84648813  0.70170317  0.97829059    -0.78700
O167        O  0.84491230  0.75130946  0.04622745    -0.76900
O168        O  0.80791116  0.72667739  0.01132988    -1.13100
O169        O  0.79998714  0.78011890  0.03260767    -0.72300
C170        C  0.77749901  0.77377669  0.04614454     0.98500
C171        C  0.78207181  0.68036457  0.97256771     0.94800
Al172      Al  0.82717538  0.69377074  0.01291165     1.55600
O173        O  0.76625916  0.75992142  0.98554610    -0.76900
C174        C  0.85879882  0.72926796  0.05287139     0.99000
C175        C  0.78232063  0.68016860  0.05047044     0.93900
O176        O  0.76499474  0.69328265  0.03409434    -0.82200
O177        O  0.24575023  0.96291845  0.77871807    -0.81700
C178        C  0.27071124  0.03820068  0.87034903     0.97700
O179        O  0.24898730  0.02217675  0.86840778    -0.70800
O180        O  0.22491097  0.03444923  0.81881181    -0.74400
Al181      Al  0.23548438  0.99971604  0.83705803     1.49000
C182        C  0.22215056  0.03651181  0.79194334     0.92900
O183        O  0.29312217  0.03027121  0.77836382    -0.80600
O184        O  0.31223701  0.96158117  0.82257824    -0.74200
Al185      Al  0.26950417  0.99660491  0.78055746     1.90100
O186        O  0.32314870  0.01821459  0.81225465    -0.73200
O187        O  0.28622131  0.97404748  0.86999572    -0.73100
O188        O  0.29332759  0.03197861  0.85703700    -0.78700
O189        O  0.24245388  0.96487503  0.85602795    -0.76900
O190        O  0.26871477  0.99770524  0.81869540    -1.13100
O191        O  0.21436625  0.97780236  0.81040835    -0.72300
C192        C  0.22162982  0.96058622  0.79093832     0.98500
C193        C  0.31655705  0.03423029  0.79156439     0.94800
Al194      Al  0.30112146  0.99659130  0.83884614     1.55600
O195        O  0.23690855  0.02099429  0.77528389    -0.76900
C196        C  0.26434519  0.95801105  0.87028025     0.99000
C197        C  0.31424095  0.95587234  0.79628695     0.93900
O198        O  0.30194111  0.97142322  0.77785678    -0.82200
O199        O  0.03049780  0.75694269  0.76786137    -0.81700
C200        C  0.96082514  0.85312113  0.74676558     0.97700
O201        O  0.97617865  0.84983055  0.76882071    -0.70800
O202        O  0.95947063  0.79907374  0.78663921    -0.74400
Al203      Al  0.99599404  0.81599623  0.78077393     1.49000
C204        C  0.95573241  0.77227628  0.78690389     0.92900
O205        O  0.96751430  0.76435667  0.71583770    -0.80600
O206        O  0.03925013  0.80683638  0.70549783    -0.74200
Al207      Al  0.99904896  0.76282246  0.74180195     1.90100
O208        O  0.98298091  0.80007904  0.68978799    -0.73200
O209        O  0.02651989  0.85213591  0.73577105    -0.73100
O210        O  0.96840229  0.84190734  0.72340779    -0.78700
O211        O  0.03256527  0.83319780  0.77822007    -0.76900
O212        O  0.99970990  0.80059336  0.74616027    -1.13100
O213        O  0.01438348  0.78619604  0.80088045    -0.72300
C214        C  0.03013105  0.76558695  0.79358517     0.98500
C215        C  0.96607721  0.77928196  0.69336125     0.94800
Al216      Al  0.00393795  0.82350312  0.71606993     1.55600
O217        O  0.97142073  0.75609073  0.77174224    -0.76900
C218        C  0.04125825  0.84922039  0.75837623     0.99000
C219        C  0.04335232  0.78060642  0.70064250     0.93900
O220        O  0.02670072  0.76187938  0.71106620    -0.82200
O221        O  0.76770351  0.24938674  0.97134095    -0.81700
C222        C  0.85860294  0.27267490  0.04768833     0.97700
O223        O  0.85774934  0.25160203  0.03068141    -0.70800
O224        O  0.80847577  0.22664101  0.04145478    -0.74400
Al225      Al  0.82669301  0.23845076  0.00710187     1.49000
C226        C  0.78163166  0.22419743  0.04417423     0.92900
O227        O  0.76762758  0.29460776  0.03920437    -0.80600
O228        O  0.81203807  0.31599954  0.97121629    -0.74200
Al229      Al  0.76989856  0.27208168  0.00525040     1.90100
O230        O  0.80090624  0.32574989  0.02779355    -0.73200
O231        O  0.86002008  0.28997641  0.98351900    -0.73100
O232        O  0.84547382  0.29538033  0.04157493    -0.78700
O233        O  0.84571295  0.24667862  0.97245607    -0.76900
O234        O  0.80807200  0.27151953  0.00612202    -1.13100
O235        O  0.80011656  0.21791009  0.98412937    -0.72300
C236        C  0.77954737  0.22531724  0.96824879     0.98500
C237        C  0.77989417  0.31838523  0.04316961     0.94800
Al238      Al  0.82807530  0.30408867  0.00608047     1.55600
O239        O  0.76474830  0.23905000  0.02906678    -0.76900
C240        C  0.85991918  0.26879509  0.96658430     0.99000
C241        C  0.78561361  0.31838048  0.96609728     0.93900
O242        O  0.76717359  0.30495676  0.98077315    -0.82200
O243        O  0.75491252  0.03305063  0.77683486    -0.81700
C244        C  0.73960281  0.96135801  0.87322242     0.97700
O245        O  0.76001150  0.97874213  0.86972327    -0.70800
O246        O  0.77963700  0.96429450  0.81897290    -0.74400
Al247      Al  0.77008304  0.99975471  0.83599569     1.49000
C248        C  0.78006856  0.95992141  0.79225504     0.92900
O249        O  0.70870006  0.96570921  0.78314769    -0.80600
O250        O  0.69021245  0.03463845  0.82638606    -0.74200
Al251      Al  0.73169491  0.99943661  0.78230216     1.90100
O252        O  0.68132347  0.97697603  0.81951340    -0.73200
O253        O  0.72150820  0.02567835  0.87184414    -0.73100
O254        O  0.71557466  0.96645008  0.86199055    -0.78700
O255        O  0.76354177  0.03542003  0.85316804    -0.76900
O256        O  0.73539631  0.00004819  0.82028726    -1.13100
O257        O  0.78887296  0.02040370  0.80665058    -0.72300
C258        C  0.78005740  0.03604264  0.78660378     0.98500
C259        C  0.68701845  0.96079993  0.79859662     0.94800
Al260      Al  0.70467445  0.00085963  0.84311776     1.55600
O261        O  0.76419490  0.97445968  0.77568067    -0.76900
C262        C  0.74257185  0.04247110  0.86855239     0.99000
C263        C  0.68628327  0.03978041  0.80018830     0.93900
O264        O  0.69855247  0.02453734  0.78125699    -0.82200
O265        O  0.46629407  0.25775651  0.27001260    -0.81700
C266        C  0.54588225  0.22903978  0.35712946     0.97700
O267        O  0.52885764  0.24993192  0.35721186    -0.70800
O268        O  0.54073680  0.27362436  0.30767455    -0.74400
Al269      Al  0.50623437  0.26436626  0.32635723     1.49000
C270        C  0.54222962  0.27713636  0.28089456     0.92900
O271        O  0.53142264  0.20842326  0.26261047    -0.80600
O272        O  0.46786833  0.18654548  0.31049559    -0.74200
Al273      Al  0.49918607  0.23282412  0.26879684     1.90100
O274        O  0.52437509  0.17833453  0.29771028    -0.73200
O275        O  0.48108805  0.21303833  0.35786119    -0.73100
O276        O  0.53954810  0.20705101  0.34283301    -0.78700
O277        O  0.47172643  0.25743007  0.34571278    -0.76900
O278        O  0.50276950  0.23184045  0.30676366    -1.13100
O279        O  0.48492567  0.28776171  0.30092071    -0.72300
C280        C  0.46709446  0.28228910  0.28142894     0.98500
C281        C  0.53723510  0.18512915  0.27492350     0.94800
Al282      Al  0.50321575  0.19891664  0.32576452     1.55600
O283        O  0.52507650  0.26441457  0.26399520    -0.76900
C284        C  0.46535061  0.23512614  0.35948415     0.99000
C285        C  0.45986310  0.18662085  0.28470709     0.93900
O286        O  0.47271783  0.20163597  0.26626662    -0.82200
O287        O  0.26077699  0.46861852  0.27271968    -0.81700
C288        C  0.35163383  0.54373224  0.24347550     0.97700
O289        O  0.35051222  0.52873236  0.26592618    -0.70800
O290        O  0.30073532  0.54105257  0.28927026    -0.74400
Al291      Al  0.31954845  0.50611455  0.28060833     1.49000
C292        C  0.27383035  0.54335460  0.29164892     0.92900
O293        O  0.26034103  0.53251647  0.22146960    -0.80600
O294        O  0.30528285  0.46319040  0.20588322    -0.74200
Al295      Al  0.26281817  0.50054282  0.24677208     1.90100
O296        O  0.29424981  0.51913361  0.19195573    -0.73200
O297        O  0.35285015  0.47813510  0.23137729    -0.73100
O298        O  0.33869399  0.53548597  0.22123368    -0.78700
O299        O  0.33944802  0.47115598  0.27564127    -0.76900
O300        O  0.30105413  0.50188391  0.24757934    -1.13100
O301        O  0.29300392  0.48511524  0.30277014    -0.72300
C302        C  0.27192825  0.46904307  0.29749128     0.98500
C303        C  0.27306391  0.53491664  0.19769592     0.94800
Al304      Al  0.32118978  0.49921581  0.21529914     1.55600
O305        O  0.25726823  0.52700189  0.27769650    -0.76900
C306        C  0.35387077  0.46350179  0.25410855     0.99000
C307        C  0.27886712  0.45805684  0.20325660     0.93900
O308        O  0.26033657  0.47362725  0.21551165    -0.82200
O309        O  0.26420722  0.25279775  0.47719314    -0.81700
C310        C  0.23034614  0.34377323  0.54889712     0.97700
O311        O  0.25272800  0.34385315  0.53368832    -0.70800
O312        O  0.27724139  0.29565282  0.54871389    -0.74400
Al313      Al  0.26919445  0.31242056  0.51292947     1.49000
C314        C  0.28081151  0.26911376  0.55221907     0.92900
O315        O  0.21158951  0.25156773  0.53983040    -0.80600
O316        O  0.19640545  0.29465202  0.46918996    -0.74200
Al317      Al  0.23762960  0.25447601  0.50839687     1.90100
O318        O  0.18111769  0.28370508  0.52493664    -0.73200
O319        O  0.21966944  0.34321493  0.48404425    -0.73100
O320        O  0.20884495  0.32913613  0.54152529    -0.78700
O321        O  0.26423634  0.33039956  0.47713870    -0.76900
O322        O  0.23698471  0.29253061  0.50877284    -1.13100
O323        O  0.29320368  0.28590326  0.49373239    -0.72300
C324        C  0.28856191  0.26472219  0.47759704     0.98500
C325        C  0.18727793  0.26332972  0.54152053     0.94800
Al326      Al  0.20411449  0.31123637  0.50522572     1.55600
O327        O  0.26813558  0.25126956  0.53606010    -0.76900
C328        C  0.24253566  0.34443723  0.46940391     0.99000
C329        C  0.19535589  0.26822949  0.46385888     0.93900
O330        O  0.20728951  0.25024978  0.48030981    -0.82200
O331        O  0.25858170  0.74993412  0.54155070    -0.81700
C332        C  0.23270893  0.65676382  0.46867565     0.97700
O333        O  0.25524990  0.65919153  0.48361715    -0.70800
O334        O  0.27766273  0.70880665  0.47003632    -0.74400
Al335      Al  0.26928117  0.69111733  0.50549525     1.49000
C336        C  0.27991135  0.73552757  0.46693431     0.92900
O337        O  0.21042010  0.74744526  0.47621303    -0.80600
O338        O  0.19429526  0.70481186  0.54700505    -0.74200
Al339      Al  0.23432227  0.74683608  0.50896960     1.90100
O340        O  0.18022534  0.71444578  0.49058843    -0.73200
O341        O  0.22037105  0.65752266  0.53316020    -0.73100
O342        O  0.21032260  0.66999482  0.47584221    -0.78700
O343        O  0.26427618  0.67209623  0.54090793    -0.76900
O344        O  0.23585759  0.70882133  0.50868876    -1.13100
O345        O  0.29079062  0.71917487  0.52613531    -0.72300
C346        C  0.28366059  0.73985573  0.54206671     0.98500
C347        C  0.18697529  0.73423929  0.47347275     0.94800
Al348      Al  0.20386469  0.68831317  0.51143809     1.55600
O349        O  0.26624462  0.75247303  0.48316789    -0.76900
C350        C  0.24312142  0.65684189  0.54798032     0.99000
C351        C  0.19134798  0.73114826  0.55194451     0.93900
O352        O  0.20224144  0.74952846  0.53521715    -0.82200
O353        O  0.25513102  0.53186722  0.74600690    -0.81700
C354        C  0.35199080  0.46299808  0.76992226     0.97700
O355        O  0.34862411  0.47803382  0.74780015    -0.70800
O356        O  0.29878634  0.46154429  0.72785975    -0.74400
Al357      Al  0.31500663  0.49782181  0.73501525     1.49000
C358        C  0.27214031  0.45703659  0.72590300     0.92900
O359        O  0.26026026  0.46711820  0.79587069    -0.80600
O360        O  0.30131268  0.53808692  0.81166176    -0.74200
Al361      Al  0.25974645  0.49952866  0.77111528     1.90100
O362        O  0.29521671  0.48099573  0.82413620    -0.73200
O363        O  0.34800490  0.52868246  0.78289134    -0.73100
O364        O  0.33935320  0.46980648  0.79271058    -0.78700
O365        O  0.33220745  0.53415147  0.73909314    -0.76900
O366        O  0.29789575  0.50061540  0.76889135    -1.13100
O367        O  0.28573580  0.51643707  0.71380334    -0.72300
C368        C  0.26496830  0.53223055  0.72073007     0.98500
C369        C  0.27470629  0.46409049  0.81859465     0.94800
Al370      Al  0.31931066  0.50412475  0.80023432     1.55600
O371        O  0.25469209  0.47272571  0.73965383    -0.76900
C372        C  0.34701303  0.54308402  0.75988163     0.99000
C373        C  0.27492598  0.54146804  0.81602011     0.93900
O374        O  0.25669248  0.52588475  0.80316011    -0.82200
O375        O  0.53624233  0.74390699  0.26901816    -0.81700
C376        C  0.46083660  0.77303127  0.35960212     0.97700
O377        O  0.47531161  0.75043450  0.35742828    -0.70800
O378        O  0.46220676  0.72831973  0.30739901    -0.74400
Al379      Al  0.49735875  0.73607567  0.32622091     1.49000
C380        C  0.46007423  0.72522843  0.28058542     0.92900
O381        O  0.47185043  0.79470751  0.26632625    -0.80600
O382        O  0.53996082  0.81236706  0.31160933    -0.74200
Al383      Al  0.50391548  0.76941399  0.26975968     1.90100
O384        O  0.48291749  0.82402801  0.30137787    -0.73200
O385        O  0.52704122  0.78533194  0.35897106    -0.73100
O386        O  0.46858087  0.79518550  0.34645352    -0.78700
O387        O  0.53214449  0.74044464  0.34625584    -0.76900
O388        O  0.50201781  0.76913845  0.30793234    -1.13100
O389        O  0.51806568  0.71343083  0.29968804    -0.72300
C390        C  0.53574174  0.71930531  0.28018318     0.98500
C391        C  0.46798243  0.81808807  0.27950572     0.94800
Al392      Al  0.50442670  0.80152078  0.32802684     1.55600
O393        O  0.47719417  0.73822327  0.26401786    -0.76900
C394        C  0.54030090  0.76170003  0.36085338     0.99000
C395        C  0.54610477  0.81359226  0.28534457     0.93900
O396        O  0.53105951  0.80030767  0.26707452    -0.82200
O397        O  0.74185022  0.52745703  0.26959451    -0.81700
C398        C  0.64541680  0.45892750  0.24479302     0.97700
O399        O  0.64832034  0.47363509  0.26738561    -0.70800
O400        O  0.69804303  0.45872204  0.28943048    -0.74400
Al401      Al  0.68125135  0.49463032  0.28072034     1.49000
C402        C  0.72460718  0.45337851  0.28943619     0.92900
O403        O  0.73622280  0.46346862  0.21878157    -0.80600
O404        O  0.69449213  0.53488886  0.20510146    -0.74200
Al405      Al  0.73675046  0.49565507  0.24434022     1.90100
O406        O  0.70206646  0.47896315  0.19087884    -0.73200
O407        O  0.64757804  0.52283407  0.23246831    -0.73100
O408        O  0.65856966  0.46555471  0.22228231    -0.78700
O409        O  0.66356584  0.53071800  0.27567711    -0.76900
O410        O  0.69864588  0.49682914  0.24685162    -1.13100
O411        O  0.70975407  0.51482006  0.30158854    -0.72300
C412        C  0.73062479  0.53017122  0.29403777     0.98500
C413        C  0.72234925  0.46181947  0.19554060     0.94800
Al414      Al  0.67737876  0.50024558  0.21536271     1.55600
O415        O  0.74176618  0.46864056  0.27497294    -0.76900
C416        C  0.64875225  0.53852617  0.25451366     0.99000
C417        C  0.72093322  0.53883902  0.20144895     0.93900
O418        O  0.73936323  0.52274897  0.21321117    -0.82200
O419        O  0.74276089  0.73262244  0.47643983    -0.81700
C420        C  0.77407284  0.64447179  0.55291658     0.97700
O421        O  0.75156318  0.64497902  0.53796602    -0.70800
O422        O  0.72760155  0.69469055  0.55037280    -0.74400
Al423      Al  0.73628465  0.67545338  0.51555107     1.49000
C424        C  0.72431513  0.72152682  0.55159630     0.92900
O425        O  0.79428872  0.73709244  0.53996325    -0.80600
O426        O  0.81216110  0.69050069  0.47344482    -0.74200
Al427      Al  0.76891322  0.73247610  0.50831082     1.90100
O428        O  0.82442331  0.70280108  0.52959425    -0.73200
O429        O  0.78661779  0.64340257  0.48748530    -0.73100
O430        O  0.79599682  0.65800330  0.54514105    -0.78700
O431        O  0.74145214  0.65523606  0.48109050    -0.76900
O432        O  0.76914746  0.69447949  0.51088794    -1.13100
O433        O  0.71301359  0.70120804  0.49454873    -0.72300
C434        C  0.71798856  0.72157729  0.47763851     0.98500
C435        C  0.81803303  0.72483000  0.54400093     0.94800
Al436      Al  0.80203405  0.67516571  0.50909948     1.55600
O437        O  0.73813712  0.73768856  0.53484775    -0.76900
C438        C  0.76333101  0.64132001  0.47359312     0.99000
C439        C  0.81362956  0.71654089  0.46697551     0.93900
O440        O  0.79972708  0.73505879  0.48107070    -0.82200
O441        O  0.73724939  0.46699085  0.75191352    -0.81700
C442        C  0.64799380  0.54443340  0.77348997     0.97700
O443        O  0.64747629  0.52665525  0.75309275    -0.70800
O444        O  0.69744287  0.53748023  0.73054286    -0.74400
Al445      Al  0.67874604  0.50327134  0.74047321     1.49000
C446        C  0.72421495  0.54144668  0.73009426     0.92900
O447        O  0.73690060  0.53342031  0.79933226    -0.80600
O448        O  0.69013611  0.46622595  0.81767215    -0.74200
Al449      Al  0.73464417  0.50019064  0.77578940     1.90100
O450        O  0.70259880  0.52189597  0.82891867    -0.73200
O451        O  0.64356913  0.48103390  0.79018349    -0.73100
O452        O  0.66042412  0.53835364  0.79665620    -0.78700
O453        O  0.65890047  0.46895051  0.74759652    -0.76900
O454        O  0.69658298  0.50153652  0.77400216    -1.13100
O455        O  0.70554618  0.48065138  0.72003183    -0.72300
C456        C  0.72571684  0.46441424  0.72755945     0.98500
C457        C  0.72351914  0.53761467  0.82241285     0.94800
Al458      Al  0.67571145  0.50186148  0.80581104     1.55600
O459        O  0.74080634  0.52534920  0.74416611    -0.76900
C460        C  0.64315283  0.46410278  0.76898022     0.99000
C461        C  0.71635781  0.46021534  0.82063434     0.93900
O462        O  0.73554544  0.47468889  0.80794102    -0.82200
O463        O  0.46904708  0.74280488  0.74158524    -0.81700
C464        C  0.54277510  0.77597249  0.65188442     0.97700
O465        O  0.52535759  0.75534932  0.65098305    -0.70800
O466        O  0.54042395  0.72837592  0.69806492    -0.74400
Al467      Al  0.50468171  0.73903316  0.68229285     1.49000
C468        C  0.54458511  0.72421296  0.72450348     0.92900
O469        O  0.53459934  0.79151296  0.74685653    -0.80600
O470        O  0.46802221  0.81555585  0.70433270    -0.74200
Al471      Al  0.50200879  0.76756165  0.74167407     1.90100
O472        O  0.52508970  0.82401809  0.71459026    -0.73200
O473        O  0.47833528  0.79211869  0.65499355    -0.73100
O474        O  0.53739087  0.79730501  0.66743668    -0.78700
O475        O  0.46907825  0.74725534  0.66556262    -0.76900
O476        O  0.50290476  0.77052305  0.70375502    -1.13100
O477        O  0.48468267  0.71436100  0.70784186    -0.62700
C478        C  0.46849931  0.71891061  0.72894895     0.98500
C479        C  0.53954658  0.81560266  0.73583869     0.94800
Al480      Al  0.50229264  0.80451184  0.68661866     1.55600
O481        O  0.52841069  0.73591893  0.74298726    -0.76900
C482        C  0.46229201  0.77021343  0.65314154     0.99000
C483        C  0.46154035  0.81416228  0.73045720     0.93900
O484        O  0.47567054  0.79856867  0.74748191    -0.82200
O485        O  0.52957180  0.25968946  0.75591171    -0.81700
C486        C  0.46198798  0.22975242  0.66026811     0.97700
O487        O  0.47755208  0.25175740  0.66188526    -0.70800
O488        O  0.45912897  0.27413394  0.71038600    -0.74400
Al489      Al  0.49608968  0.26679773  0.69520573     1.49000
C490        C  0.45520957  0.27792538  0.73691502     0.92900
O491        O  0.46561552  0.20871149  0.75235599    -0.80600
O492        O  0.53805350  0.19192779  0.71338142    -0.74200
Al493      Al  0.49772400  0.23379477  0.75210781     1.90100
O494        O  0.48070495  0.17865451  0.71949025    -0.73200
O495        O  0.52840271  0.21807628  0.66512897    -0.73100
O496        O  0.46899419  0.20757055  0.67374205    -0.78700
O497        O  0.53284469  0.26253153  0.67935661    -0.76900
O498        O  0.49929227  0.23399358  0.71403562    -1.13100
O499        O  0.51356805  0.28984712  0.72369506    -0.72300
C500        C  0.52901014  0.28453090  0.74518814     0.98500
C501        C  0.46328843  0.18514804  0.73926344     0.94800
Al502      Al  0.50367896  0.20165907  0.69436053     1.55600
O503        O  0.47070211  0.26500128  0.75510539    -0.76900
C504        C  0.54271250  0.24122434  0.66606148     0.99000
C505        C  0.54119344  0.18957105  0.74007177     0.93900
O506        O  0.52448820  0.20253388  0.75714120    -0.82200
O507        O  0.74426907  0.26297902  0.54712298    -0.81700
C508        C  0.77165726  0.34987429  0.46753864     0.97700
O509        O  0.74923903  0.34890958  0.48263892    -0.70800
O510        O  0.72646917  0.29863455  0.47223182    -0.74400
Al511      Al  0.73502989  0.31883775  0.50640525     1.49000
C512        C  0.72350236  0.27181730  0.47130293     0.92900
O513        O  0.79423443  0.25916524  0.48113877    -0.80600
O514        O  0.81021961  0.30733428  0.54861892    -0.74200
Al515      Al  0.76925463  0.26294421  0.51403358     1.90100
O516        O  0.82358760  0.29372218  0.49328584    -0.73200
O517        O  0.78457381  0.35349347  0.53272364    -0.73100
O518        O  0.79402584  0.33713630  0.47554608    -0.78700
O519        O  0.74009602  0.34027091  0.54041294    -0.76900
O520        O  0.76824909  0.30093481  0.51098284    -1.13100
O521        O  0.71320587  0.29301514  0.52894575    -0.72300
C522        C  0.71991789  0.27503718  0.54789119     0.98500
C523        C  0.81766775  0.27254912  0.47752479     0.94800
Al524      Al  0.80042448  0.32131127  0.51237969     1.55600
O525        O  0.73717495  0.25588387  0.48849785    -0.76900
C526        C  0.76176460  0.35486768  0.54728741     0.99000
C527        C  0.81374971  0.28146137  0.55489579     0.93900
O528        O  0.80128396  0.26198478  0.54052091    -0.82200
C529        C  0.60695101  0.22379094  0.61846946    -0.01900
C530        C  0.62605413  0.24649689  0.62480141     0.06700
C531        C  0.61795049  0.26675830  0.64551345    -0.07800
C532        C  0.59100693  0.26584492  0.65862264     0.04200
C533        C  0.57150757  0.24334409  0.65208466    -0.15100
C534        C  0.58026202  0.22211439  0.63246839    -0.08400
C535        C  0.65186822  0.25300705  0.60691267     0.05100
C536        C  0.65285893  0.27993599  0.59387728    -0.09500
C537        C  0.67571718  0.28800617  0.57647169     0.00100
C538        C  0.69803081  0.26831616  0.57023045     0.00000
C539        C  0.69791973  0.24171648  0.58436295    -0.13100
C540        C  0.67529547  0.23414946  0.60298732     0.00400
C541        C  0.67571502  0.31714139  0.56611454     0.39700
C542        C  0.67701880  0.20748552  0.61841190     0.36300
C543        C  0.61334507  0.20296232  0.59648765     0.36100
C544        C  0.58401058  0.28906253  0.67791674     0.36800
N545        N  0.67546214  0.34057438  0.55814670    -0.44000
N546        N  0.67845316  0.18615316  0.63087386    -0.44400
N547        N  0.57837190  0.30797162  0.69296280    -0.41800
N548        N  0.61845899  0.18618434  0.57892169    -0.43200
H549        H  0.56579970  0.20464265  0.62721967     0.13000
H550        H  0.63235853  0.28440050  0.65043146     0.09400
H551        H  0.63545585  0.29497586  0.59735236     0.10500
H552        H  0.71521421  0.22667933  0.58055632     0.16300
C553        C  0.61563385  0.39072732  0.74852749    -0.01900
C554        C  0.59454218  0.38548087  0.76950888     0.06700
C555        C  0.58890983  0.40651387  0.79029591    -0.07800
C556        C  0.60381123  0.43260268  0.79034734     0.04200
C557        C  0.62510920  0.43785630  0.76933405    -0.15100
C558        C  0.63064863  0.41659160  0.74865621    -0.08400
C559        C  0.57674793  0.35911336  0.76853571     0.05100
C560        C  0.59003248  0.33213572  0.77033811    -0.09500
C561        C  0.57458496  0.30696795  0.76449731     0.00100
C562        C  0.54524933  0.30872817  0.75747426     0.00000
C563        C  0.53162402  0.33555013  0.75772817    -0.13100
C564        C  0.54708442  0.36063564  0.76281398     0.00400
C565        C  0.58984410  0.28016264  0.76275792     0.39700
C566        C  0.53250736  0.38771763  0.75950198     0.36300
C567        C  0.62177045  0.37027947  0.72606359     0.36100
C568        C  0.59621717  0.45361251  0.81180283     0.36800
N569        N  0.60202964  0.25866355  0.76099811    -0.44000
N570        N  0.52085418  0.40939056  0.75668636    -0.44400
N571        N  0.59008405  0.47047732  0.82895699    -0.41800
N572        N  0.62683750  0.35395805  0.70806164    -0.43200
H573        H  0.64697003  0.42001131  0.73244628     0.13000
H574        H  0.57248191  0.40264661  0.80630466     0.09400
H575        H  0.61287977  0.33090810  0.77463914     0.10500
H576        H  0.50902959  0.33705729  0.75223557     0.16300
C577        C  0.59631417  0.60093738  0.74885051    -0.01900
C578        C  0.61157667  0.62632826  0.75498659     0.06700
C579        C  0.63846980  0.62478271  0.76827353    -0.07800
C580        C  0.65050701  0.59821972  0.77506955     0.04200
C581        C  0.63502470  0.57278536  0.76929344    -0.15100
C582        C  0.60810498  0.57445429  0.75604670    -0.08400
C583        C  0.59955893  0.65457354  0.74755815     0.05100
C584        C  0.58709831  0.67108416  0.76925413    -0.09500
C585        C  0.57078862  0.69528141  0.76261479     0.00100
C586        C  0.56679531  0.70324568  0.73354193     0.00000
C587        C  0.58180077  0.68804662  0.71214601    -0.13100
C588        C  0.59795581  0.66380574  0.71894044     0.00400
C589        C  0.55733645  0.71034315  0.78609660     0.39700
C590        C  0.61164152  0.64787851  0.69616597     0.36300
C591        C  0.56869590  0.60146156  0.73482573     0.36100
C592        C  0.67971017  0.59765137  0.78540606     0.36800
N593        N  0.54652365  0.72236467  0.80493061    -0.44000
N594        N  0.62261866  0.63493328  0.67805777    -0.44400
N595        N  0.70330872  0.59760499  0.79313548    -0.41800
N596        N  0.54665571  0.60157845  0.72338277    -0.43200
H597        H  0.59644950  0.55496038  0.75094332     0.13000
H598        H  0.65040875  0.64430465  0.77248746     0.09400
H599        H  0.58884868  0.66412185  0.79137834     0.10500
H600        H  0.57967969  0.69405127  0.68979271     0.16300
C601        C  0.77575245  0.37710010  0.62372281    -0.01900
C602        C  0.75437755  0.39804839  0.62818034     0.06700
C603        C  0.73744961  0.40673365  0.60479873    -0.07800
C604        C  0.74007130  0.39357813  0.57795657     0.04200
C605        C  0.76089043  0.37221919  0.57370749    -0.15100
C606        C  0.77907493  0.36467188  0.59649404    -0.08400
C607        C  0.74834586  0.41070814  0.65694877     0.05100
C608        C  0.77012101  0.42534967  0.67198623    -0.09500
C609        C  0.76382355  0.44098846  0.69698407     0.00100
C610        C  0.73523986  0.44265277  0.70671687     0.00000
C611        C  0.71396152  0.42652119  0.69282854    -0.13100
C612        C  0.72029908  0.41031349  0.66846380     0.00400
C613        C  0.78654260  0.45667651  0.71108224     0.39700
C614        C  0.69742301  0.39396047  0.65532671     0.36300
C615        C  0.79323998  0.36671957  0.64703346     0.36100
C616        C  0.72086397  0.40206866  0.55526940     0.36800
N617        N  0.80475511  0.46912060  0.72254142    -0.44000
N618        N  0.67905595  0.38091824  0.64481593    -0.44400
N619        N  0.70523421  0.40894068  0.53729076    -0.41800
N620        N  0.80722170  0.35834935  0.66572566    -0.43200
H621        H  0.79484636  0.34785965  0.59342629     0.13000
H622        H  0.72141525  0.42329856  0.60780037     0.09400
H623        H  0.79177171  0.42568217  0.66347732     0.10500
H624        H  0.69198962  0.42744159  0.70049401     0.16300
C625        C  0.72524933  0.59673073  0.67212640    -0.01900
C626        C  0.75382373  0.59457199  0.66265520     0.06700
C627        C  0.77409637  0.58026653  0.67940386    -0.07800
C628        C  0.76553285  0.56506876  0.70367827     0.04200
C629        C  0.73598605  0.56356102  0.71075809    -0.15100
C630        C  0.71649433  0.58114485  0.69597710    -0.08400
C631        C  0.76220902  0.60493148  0.63413762     0.05100
C632        C  0.78061712  0.62843949  0.63202437    -0.09500
C633        C  0.78656363  0.64054863  0.60535265     0.00100
C634        C  0.77369002  0.62902553  0.58034926     0.00000
C635        C  0.75672680  0.60428774  0.58247442    -0.13100
C636        C  0.75119864  0.59198155  0.60910483     0.00400
C637        C  0.80421268  0.66591513  0.60483404     0.39700
C638        C  0.73394398  0.56628010  0.61036883     0.36300
C639        C  0.70438794  0.61386672  0.65698853     0.36100
C640        C  0.78743583  0.55051621  0.71996302     0.36800
N641        N  0.81847869  0.68618688  0.60508479    -0.44000
N642        N  0.72023145  0.54563686  0.61151763    -0.44400
N643        N  0.80508829  0.53910359  0.73311043    -0.41800
N644        N  0.68774994  0.62769155  0.64489379    -0.43200
H645        H  0.69401166  0.58153864  0.70199797     0.13000
H646        H  0.79637075  0.57974441  0.67263993     0.09400
H647        H  0.78940298  0.63801079  0.65136539     0.10500
H648        H  0.74713934  0.59502397  0.56336913     0.16300
C649        C  0.66427819  0.72522280  0.60585570    -0.01900
C650        C  0.65150271  0.75162455  0.59900737     0.06700
C651        C  0.66467008  0.76970513  0.57921929    -0.07800
C652        C  0.68945578  0.76115981  0.56474225     0.04200
C653        C  0.70169628  0.73387249  0.57031294    -0.15100
C654        C  0.68921787  0.71655313  0.59156799    -0.08400
C655        C  0.62327341  0.75989365  0.61067732     0.05100
C656        C  0.62192240  0.78025802  0.63266690    -0.09500
C657        C  0.59564871  0.78732958  0.64534599     0.00100
C658        C  0.57010300  0.77375893  0.63583909     0.00000
C659        C  0.57154540  0.75445945  0.61268691    -0.13100
C660        C  0.59780924  0.74756663  0.60002915     0.00400
C661        C  0.59605712  0.80728127  0.66903974     0.39700
C662        C  0.59824601  0.72758637  0.57632824     0.36300
C663        C  0.65163117  0.70646416  0.62690705     0.36100
C664        C  0.70025937  0.78016365  0.54287626     0.36800
N665        N  0.59668950  0.82335535  0.68795271    -0.44000
N666        N  0.59867852  0.71165051  0.55728647    -0.44400
N667        N  0.70877952  0.79535627  0.52526782    -0.41800
N668        N  0.64137541  0.69157786  0.64383310    -0.43200
H669        H  0.69827894  0.69571395  0.59627993     0.13000
H670        H  0.65472246  0.79005614  0.57408961     0.09400
H671        H  0.64160273  0.79001932  0.64049468     0.10500
H672        H  0.55216260  0.74409700  0.60491439     0.16300
C673        C  0.77441943  0.41751276  0.34197511    -0.01900
C674        C  0.75622113  0.39710261  0.35462695     0.06700
C675        C  0.72909720  0.39191823  0.34257940    -0.07800
C676        C  0.71898675  0.40845637  0.31969342     0.04200
C677        C  0.73621331  0.43084349  0.30865838    -0.15100
C678        C  0.76444217  0.43397730  0.31902219    -0.08400
C679        C  0.76244345  0.38548073  0.38345704     0.05100
C680        C  0.74780286  0.39768302  0.40664592    -0.09500
C681        C  0.75193327  0.38767990  0.43448205     0.00100
C682        C  0.77076508  0.36458345  0.43951623     0.00000
C683        C  0.78649877  0.35317934  0.41639885    -0.13100
C684        C  0.78250738  0.36350202  0.38844617     0.00400
C685        C  0.73698754  0.40202714  0.45746064     0.39700
C686        C  0.79857330  0.35077902  0.36525608     0.36300
C687        C  0.80242885  0.42361226  0.35380310     0.36100
C688        C  0.69066240  0.40239156  0.30856803     0.36800
N689        N  0.72506046  0.41384520  0.47571649    -0.44000
N690        N  0.81161302  0.34055471  0.34677799    -0.44400
N691        N  0.66798408  0.39737396  0.29970799    -0.41800
N692        N  0.82484376  0.42843843  0.36339199    -0.43200
H693        H  0.77813049  0.45073250  0.31060085     0.13000
H694        H  0.71516074  0.37599468  0.35218331     0.09400
H695        H  0.73300762  0.41519514  0.40290487     0.10500
H696        H  0.80103427  0.33543473  0.41995404     0.16300
C697        C  0.78203693  0.61365944  0.39995114    -0.01900
C698        C  0.75702830  0.59822792  0.39249956     0.06700
C699        C  0.73523902  0.59487335  0.41301431    -0.07800
C700        C  0.73734419  0.60772961  0.44003460     0.04200
C701        C  0.76198514  0.62380247  0.44723657    -0.15100
C702        C  0.78441773  0.62607529  0.42725958    -0.08400
C703        C  0.75306423  0.58471378  0.36384030     0.05100
C704        C  0.77248474  0.56357946  0.35470595    -0.09500
C705        C  0.76677967  0.54696338  0.33027447     0.00100
C706        C  0.74126454  0.55139364  0.31474992     0.00000
C707        C  0.72269592  0.57354951  0.32283511    -0.13100
C708        C  0.72848498  0.59037090  0.34700655     0.00400
C709        C  0.78617559  0.52405588  0.32287651     0.39700
C710        C  0.70841720  0.61268965  0.35460069     0.36300
C711        C  0.80486386  0.61824852  0.37956078     0.36100
C712        C  0.71403322  0.60387421  0.46004975     0.36800
N713        N  0.80174914  0.50569822  0.31696971    -0.44000
N714        N  0.69230152  0.63051500  0.36071949    -0.44400
N715        N  0.69533935  0.60075716  0.47606408    -0.41800
N716        N  0.82318792  0.62197797  0.36325461    -0.43200
H717        H  0.80323573  0.63877984  0.43247593     0.13000
H718        H  0.71631919  0.58234536  0.40775429     0.09400
H719        H  0.79129454  0.55894952  0.36758082     0.10500
H720        H  0.70298213  0.57688094  0.31091890     0.16300
C721        C  0.64141746  0.73884583  0.45818606    -0.01900
C722        C  0.64366915  0.74729338  0.42934546     0.06700
C723        C  0.67103683  0.74972075  0.41683764    -0.07800
C724        C  0.69594765  0.74288084  0.43242803     0.04200
C725        C  0.69346154  0.73271524  0.46076428    -0.15100
C726        C  0.66609843  0.73148795  0.47347171    -0.08400
C727        C  0.61753895  0.75143749  0.41150971     0.05100
C728        C  0.59979315  0.77521454  0.41629325    -0.09500
C729        C  0.57424718  0.77889348  0.40069306     0.00100
C730        C  0.56621318  0.75858290  0.37949836     0.00000
C731        C  0.58401483  0.73455928  0.37522714    -0.13100
C732        C  0.60924011  0.73078988  0.39106854     0.00400
C733        C  0.55641292  0.80316062  0.40766564     0.39700
C734        C  0.62581632  0.70502813  0.38672078     0.36300
C735        C  0.61390792  0.73655792  0.47225899     0.36100
C736        C  0.72352560  0.74533528  0.41858211     0.36800
N737        N  0.54207084  0.82254568  0.41342385    -0.44000
N738        N  0.63906706  0.68433893  0.38347845    -0.44400
N739        N  0.74570175  0.74743937  0.40762076    -0.41800
N740        N  0.59189485  0.73484445  0.48360460    -0.43200
H741        H  0.66389957  0.72433180  0.49550157     0.13000
H742        H  0.67285019  0.75641389  0.39464280     0.09400
H743        H  0.60578813  0.79078021  0.43257224     0.10500
H744        H  0.57833285  0.71851519  0.35931771     0.16300
C745        C  0.55864522  0.64453423  0.26268047    -0.01900
C746        C  0.58874873  0.64698055  0.26118774     0.06700
C747        C  0.60157044  0.67415575  0.26379261    -0.07800
C748        C  0.58471341  0.69863632  0.26867253     0.04200
C749        C  0.55460457  0.69595540  0.27038344    -0.15100
C750        C  0.54193954  0.66889545  0.26689416    -0.08400
C751        C  0.60670644  0.62089241  0.25855624     0.05100
C752        C  0.60439532  0.60416285  0.23368740    -0.09500
C753        C  0.61760107  0.57733295  0.23177155     0.00100
C754        C  0.63345697  0.56654324  0.25538605     0.00000
C755        C  0.63632238  0.58390278  0.28000108    -0.13100
C756        C  0.62329849  0.61085169  0.28166219     0.00400
C757        C  0.61429795  0.56168707  0.20521505     0.39700
C758        C  0.62656050  0.62748536  0.30760620     0.36300
C759        C  0.54451627  0.61697952  0.26203291     0.36100
C760        C  0.59880851  0.72559201  0.27439741     0.36800
N761        N  0.61166416  0.54929443  0.18384518    -0.44000
N762        N  0.62922624  0.64095661  0.32830011    -0.44400
N763        N  0.61013703  0.74712015  0.27932459    -0.41800
N764        N  0.53329476  0.59486318  0.26174508    -0.43200
H765        H  0.51881783  0.66661167  0.26872298     0.13000
H766        H  0.62475586  0.67604151  0.26306361     0.09400
H767        H  0.59163348  0.61193111  0.21586428     0.10500
H768        H  0.64874194  0.57645611  0.29817297     0.16300
C769        C  0.37647985  0.38775076  0.78692574    -0.01900
C770        C  0.39459998  0.38153257  0.76360352     0.06700
C771        C  0.40068512  0.40294505  0.74354079    -0.07800
C772        C  0.38836986  0.43016735  0.74591070     0.04200
C773        C  0.36919403  0.43624170  0.76866389    -0.15100
C774        C  0.36399299  0.41490193  0.78930653    -0.08400
C775        C  0.40757155  0.35286990  0.75953134     0.05100
C776        C  0.39776743  0.33542697  0.73700028    -0.09500
C777        C  0.41160652  0.30961529  0.73040449     0.00100
C778        C  0.43566252  0.30093298  0.74662809     0.00000
C779        C  0.44433094  0.31770196  0.77019608    -0.13100
C780        C  0.43076524  0.34364637  0.77650413     0.00400
C781        C  0.40100376  0.29262118  0.70674348     0.39700
C782        C  0.44233199  0.36143372  0.79911719     0.36300
C783        C  0.36964811  0.36629950  0.80807714     0.36100
C784        C  0.39605480  0.45135308  0.72478205     0.36800
N785        N  0.39260994  0.27883981  0.68785318    -0.44000
N786        N  0.45169647  0.37576276  0.81713024    -0.44400
N787        N  0.40226702  0.46834424  0.70787822    -0.41800
N788        N  0.36421971  0.34910114  0.82503672    -0.43200
H789        H  0.34925795  0.41900570  0.80683401     0.13000
H790        H  0.41509466  0.39828268  0.72587012     0.09400
H791        H  0.37974781  0.34243136  0.72404105     0.10500
H792        H  0.46310323  0.31159327  0.78254096     0.16300
C793        C  0.39723194  0.60473692  0.77866669    -0.01900
C794        C  0.39426398  0.62303835  0.75488555     0.06700
C795        C  0.37510662  0.61546707  0.73296597    -0.07800
C796        C  0.35944237  0.58982021  0.73405296     0.04200
C797        C  0.36310041  0.57074078  0.75748338    -0.15100
C798        C  0.38181970  0.57893619  0.77978540    -0.08400
C799        C  0.41297284  0.64863895  0.75108415     0.05100
C800        C  0.44242541  0.64424486  0.74704745    -0.09500
C801        C  0.46079905  0.66712498  0.74105343     0.00100
C802        C  0.44984368  0.69523000  0.73888415     0.00000
C803        C  0.42054365  0.69992469  0.74411096    -0.13100
C804        C  0.40203965  0.67682575  0.74998966     0.00400
C805        C  0.49099754  0.66122055  0.73758060     0.39700
C806        C  0.37199512  0.68247318  0.75484562     0.36300
C807        C  0.41570383  0.61228169  0.80238576     0.36100
C808        C  0.33968223  0.58413564  0.71081374     0.36800
N809        N  0.51522112  0.65660577  0.73486494    -0.44000
N810        N  0.34790611  0.68699902  0.75880499    -0.44400
N811        N  0.32385865  0.57974723  0.69215784    -0.41800
N812        N  0.43042896  0.61848743  0.82141367    -0.43200
H813        H  0.38456085  0.56514126  0.79823478     0.13000
H814        H  0.37278412  0.62947203  0.71460052     0.09400
H815        H  0.45100983  0.62270166  0.74802218     0.10500
H816        H  0.41195883  0.72142092  0.74260661     0.16300
C817        C  0.21887984  0.60589291  0.60640001    -0.01900
C818        C  0.24219241  0.60647605  0.62565959     0.06700
C819        C  0.26643688  0.62292946  0.61890798    -0.07800
C820        C  0.26768985  0.63897092  0.59360396     0.04200
C821        C  0.24424872  0.63855232  0.57414216    -0.15100
C822        C  0.22012962  0.62163768  0.58093814    -0.08400
C823        C  0.24302444  0.58794003  0.65150468     0.05100
C824        C  0.24302242  0.55825961  0.64742291    -0.09500
C825        C  0.24809705  0.53973215  0.67027248     0.00100
C826        C  0.25288520  0.55077944  0.69814312     0.00000
C827        C  0.25099274  0.58042513  0.70268115    -0.13100
C828        C  0.24646402  0.59907826  0.67951508     0.00400
C829        C  0.24954856  0.50946727  0.66412547     0.39700
C830        C  0.24643160  0.62953974  0.68474105     0.36300
C831        C  0.19311252  0.58988525  0.61267613     0.36100
C832        C  0.29329903  0.65567045  0.58858482     0.36800
N833        N  0.25088035  0.48533492  0.65870806    -0.44000
N834        N  0.24652615  0.65398597  0.68882591    -0.44400
N835        N  0.31383755  0.66904813  0.58462405    -0.41800
N836        N  0.17242017  0.57713061  0.61771989    -0.43200
H837        H  0.20177697  0.62111330  0.56662855     0.13000
H838        H  0.28467931  0.62295315  0.63339634     0.09400
H839        H  0.24051899  0.54956527  0.62596032     0.10500
H840        H  0.25500873  0.58912204  0.72390155     0.16300
C841        C  0.38338757  0.78693013  0.37952632    -0.01900
C842        C  0.37899173  0.76689049  0.40156544     0.06700
C843        C  0.40214503  0.75060119  0.41147403    -0.07800
C844        C  0.42937097  0.75331685  0.39916433     0.04200
C845        C  0.43375593  0.77265933  0.37629266    -0.15100
C846        C  0.41066630  0.78975003  0.36712541    -0.08400
C847        C  0.35062857  0.76257781  0.41519501     0.05100
C848        C  0.33283015  0.74036301  0.40535622    -0.09500
C849        C  0.30827590  0.73241967  0.42079058     0.00100
C850        C  0.30129962  0.74692131  0.44647346     0.00000
C851        C  0.31804849  0.77049380  0.45504539    -0.13100
C852        C  0.34275654  0.77815658  0.43983214     0.00400
C853        C  0.29075169  0.70915409  0.41017081     0.39700
C854        C  0.36078509  0.80082203  0.45087472     0.36300
C855        C  0.36009950  0.80430491  0.36897678     0.36100
C856        C  0.45242699  0.73622145  0.41071597     0.36800
N857        N  0.27639031  0.69064223  0.40191959    -0.44000
N858        N  0.37538790  0.81887166  0.45971081    -0.44400
N859        N  0.47090871  0.72255320  0.41999710    -0.41800
N860        N  0.34141859  0.81823094  0.36051920    -0.43200
H861        H  0.41361903  0.80453712  0.34948561     0.13000
H862        H  0.39883681  0.73556548  0.42884832     0.09400
H863        H  0.33879197  0.72847761  0.38625025     0.10500
H864        H  0.31298528  0.78174312  0.47478742     0.16300
C865        C  0.35477991  0.77066259  0.56257254    -0.01900
C866        C  0.35429416  0.76769915  0.59257097     0.06700
C867        C  0.32885854  0.75925597  0.60632724    -0.07800
C868        C  0.30444663  0.75208727  0.59023499     0.04200
C869        C  0.30585876  0.75281876  0.56012102    -0.15100
C870        C  0.33071380  0.76287693  0.54656688    -0.08400
C871        C  0.38135534  0.76861759  0.60895337     0.05100
C872        C  0.39229146  0.79485823  0.61859707    -0.09500
C873        C  0.41896545  0.79625702  0.63248459     0.00100
C874        C  0.43513786  0.77091689  0.63660944     0.00000
C875        C  0.42392386  0.74475319  0.62667752    -0.13100
C876        C  0.39735836  0.74343990  0.61297505     0.00400
C877        C  0.42849109  0.82376354  0.64301987     0.39700
C878        C  0.38706545  0.71602647  0.60282824     0.36300
C879        C  0.38031813  0.78002373  0.54775542     0.36100
C880        C  0.27899627  0.74204027  0.60473178     0.36800
N881        N  0.43586988  0.84594464  0.65136094    -0.44000
N882        N  0.37884397  0.69407817  0.59466556    -0.44400
N883        N  0.25844905  0.73402180  0.61610821    -0.41800
N884        N  0.40078562  0.78764790  0.53597732    -0.43200
H885        H  0.33167283  0.76357030  0.52331631     0.13000
H886        H  0.32858367  0.75687361  0.62946108     0.09400
H887        H  0.37994979  0.81424714  0.61521655     0.10500
H888        H  0.43595282  0.72510384  0.62964662     0.16300
C889        C  0.24564324  0.40282395  0.60179130    -0.01900
C890        C  0.23870787  0.38961344  0.62804502     0.06700
C891        C  0.22653019  0.36220434  0.62796785    -0.07800
C892        C  0.22236629  0.34733557  0.60217570     0.04200
C893        C  0.23022436  0.36017302  0.57592452    -0.15100
C894        C  0.24152276  0.38799045  0.57603013    -0.08400
C895        C  0.24650965  0.40310252  0.65572439     0.05100
C896        C  0.22524253  0.41609789  0.67247328    -0.09500
C897        C  0.23257587  0.43212844  0.69691734     0.00100
C898        C  0.26185109  0.43520737  0.70487103     0.00000
C899        C  0.28267519  0.41990759  0.68921282    -0.13100
C900        C  0.27529455  0.40421609  0.66477696     0.00400
C901        C  0.20969389  0.44636950  0.71213685     0.39700
C902        C  0.29780040  0.39032416  0.64863139     0.36300
C903        C  0.25770861  0.43128757  0.60083602     0.36100
C904        C  0.21256229  0.31806430  0.60356243     0.36800
N905        N  0.19123417  0.45778149  0.72417362    -0.44000
N906        N  0.31581818  0.37928599  0.63561824    -0.44400
N907        N  0.20498548  0.29453114  0.60504482    -0.41800
N908        N  0.26739738  0.45408800  0.59993060    -0.43200
H909        H  0.24777517  0.39788102  0.55595726     0.13000
H910        H  0.22155502  0.35190878  0.64818728     0.09400
H911        H  0.20300373  0.41477566  0.66568802     0.10500
H912        H  0.30516087  0.42135829  0.69508525     0.16300
C913        C  0.33838915  0.27413728  0.60865794    -0.01900
C914        C  0.35270371  0.24783649  0.60505144     0.06700
C915        C  0.34060666  0.22669979  0.58748051    -0.07800
C916        C  0.31582680  0.23220139  0.57151879     0.04200
C917        C  0.30250203  0.25942561  0.57337012    -0.15100
C918        C  0.31341582  0.27962285  0.59302391    -0.08400
C919        C  0.38112281  0.24236608  0.61801664     0.05100
C920        C  0.38364268  0.22104700  0.63880753    -0.09500
C921        C  0.41013674  0.21515574  0.65158387     0.00100
C922        C  0.43477179  0.23117818  0.64381093     0.00000
C923        C  0.43225184  0.25179578  0.62205832    -0.13100
C924        C  0.40583197  0.25716196  0.60888351     0.00400
C925        C  0.41076912  0.19306167  0.67302745     0.39700
C926        C  0.40464022  0.27744489  0.58561446     0.36300
C927        C  0.34941195  0.29621728  0.62743108     0.36100
C928        C  0.30614764  0.21014195  0.55200694     0.36800
N929        N  0.41047157  0.17487847  0.68976256    -0.44000
N930        N  0.40360026  0.29352650  0.56682689    -0.44400
N931        N  0.29859404  0.19240544  0.53633443    -0.41800
N932        N  0.35808801  0.31415177  0.64227386    -0.43200
H933        H  0.30326573  0.30042569  0.59515539     0.13000
H934        H  0.35149801  0.20629460  0.58505482     0.09400
H935        H  0.36470040  0.20917737  0.64529288     0.10500
H936        H  0.45094647  0.26398093  0.61548012     0.16300
C937        C  0.39825061  0.60388143  0.27175821    -0.01900
C938        C  0.39329159  0.62597810  0.25184278     0.06700
C939        C  0.37635882  0.62031888  0.22761759    -0.07800
C940        C  0.36328624  0.59347241  0.22368183     0.04200
C941        C  0.36747758  0.57148213  0.24420765    -0.15100
C942        C  0.38542431  0.57710317  0.26783283    -0.08400
C943        C  0.40614261  0.65484694  0.25601579     0.05100
C944        C  0.42759775  0.66414039  0.23716152    -0.09500
C945        C  0.44405289  0.68855700  0.24338019     0.00100
C946        C  0.43913409  0.70402512  0.26912581     0.00000
C947        C  0.41583393  0.69606280  0.28651068    -0.13100
C948        C  0.39926251  0.67188483  0.28005101     0.00400
C949        C  0.46707916  0.69575191  0.22397424     0.39700
C950        C  0.37595341  0.66433678  0.29897514     0.36300
C951        C  0.41646270  0.60816796  0.29649465     0.36100
C952        C  0.34484760  0.58978832  0.19903821     0.36800
N953        N  0.48548098  0.70148936  0.20835110    -0.44000
N954        N  0.35732076  0.65822341  0.31416530    -0.44400
N955        N  0.33009287  0.58705613  0.17924028    -0.41800
N956        N  0.43090045  0.61170254  0.31639844    -0.43200
H957        H  0.38916781  0.56061017  0.28373509     0.13000
H958        H  0.37276443  0.63720301  0.21209312     0.09400
H959        H  0.43260199  0.65134656  0.21837379     0.10500
H960        H  0.41128237  0.70805331  0.30593722     0.16300
C961        C  0.27013987  0.60478022  0.34400425    -0.01900
C962        C  0.24662519  0.59671972  0.36120616     0.06700
C963        C  0.22953701  0.57346865  0.35292671    -0.07800
C964        C  0.23683806  0.55683298  0.32902690     0.04200
C965        C  0.26182909  0.56352493  0.31301583    -0.15100
C966        C  0.27768415  0.58807218  0.32027060    -0.08400
C967        C  0.24155632  0.61024612  0.38948286     0.05100
C968        C  0.21711621  0.62711596  0.39383137    -0.09500
C969        C  0.21275856  0.64139117  0.41996430     0.00100
C970        C  0.23341816  0.63895885  0.44222102     0.00000
C971        C  0.25699387  0.62064543  0.43810986    -0.13100
C972        C  0.26102420  0.60618793  0.41220723     0.00400
C973        C  0.18734488  0.65885074  0.42276006     0.39700
C974        C  0.28523587  0.58709302  0.40944399     0.36300
C975        C  0.28734580  0.62960555  0.35084390     0.36100
C976        C  0.21974292  0.53162948  0.32323347     0.36800
N977        N  0.16683814  0.67264392  0.42491513    -0.44000
N978        N  0.30453895  0.57169432  0.40718277    -0.44400
N979        N  0.20610654  0.51137939  0.31870347    -0.41800
N980        N  0.30117528  0.64950754  0.35621004    -0.43200
H981        H  0.29662633  0.59366211  0.30795879     0.13000
H982        H  0.21139900  0.56732977  0.36614430     0.09400
H983        H  0.20175189  0.62961486  0.37653503     0.10500
H984        H  0.27269144  0.61786577  0.45505639     0.16300
C985        C  0.22225067  0.40001134  0.41376414    -0.01900
C986        C  0.24310929  0.39555666  0.39235339     0.06700
C987        C  0.26395116  0.37438232  0.39631794    -0.07800
C988        C  0.26457405  0.35786003  0.42128595     0.04200
C989        C  0.24362031  0.36218278  0.44295253    -0.15100
C990        C  0.22243967  0.38318367  0.43859043    -0.08400
C991        C  0.24604433  0.41499189  0.36742577     0.05100
C992        C  0.25544497  0.44292625  0.37269471    -0.09500
C993        C  0.26280235  0.46108406  0.35018732     0.00100
C994        C  0.26065622  0.45138582  0.32137708     0.00000
C995        C  0.24959712  0.42388342  0.31602385    -0.13100
C996        C  0.24257373  0.40555781  0.33883989     0.00400
C997        C  0.27301900  0.48940069  0.35761981     0.39700
C998        C  0.23230021  0.37706284  0.33255706     0.36300
C999        C  0.20060886  0.42188597  0.41077312     0.36100
C1000       C  0.28678712  0.33643465  0.42356815     0.36800
N1001       N  0.28142474  0.51193207  0.36375305    -0.44000
N1002       N  0.22402929  0.35420653  0.32758782    -0.44400
N1003       N  0.30469368  0.31937724  0.42526348    -0.41800
N1004       N  0.18333778  0.43950016  0.40841148    -0.43200
H1005       H  0.20614964  0.38679849  0.45479709     0.13000
H1006       H  0.28032257  0.37126513  0.38006341     0.09400
H1007       H  0.25814192  0.45021266  0.39465833     0.10500
H1008       H  0.24766916  0.41624522  0.29412418     0.16300
C1009       C  0.60362937  0.26028790  0.40520411    -0.01900
C1010       C  0.62635417  0.24075205  0.40190048     0.06700
C1011       C  0.62257696  0.21665709  0.38434756    -0.07800
C1012       C  0.59655063  0.21192570  0.36983609     0.04200
C1013       C  0.57341920  0.23136390  0.37336197    -0.15100
C1014       C  0.57749830  0.25537688  0.39126831    -0.08400
C1015       C  0.65383948  0.24506155  0.41738560     0.05100
C1016       C  0.65679255  0.23343574  0.44486365    -0.09500
C1017       C  0.68043601  0.24041671  0.46210415     0.00100
C1018       C  0.70158062  0.25956905  0.45184324     0.00000
C1019       C  0.69913470  0.27028781  0.42384920    -0.13100
C1020       C  0.67563411  0.26293261  0.40649877     0.00400
C1021       C  0.68109151  0.22955979  0.49105729     0.39700
C1022       C  0.67387830  0.27455620  0.37792414     0.36300
C1023       C  0.60681313  0.28581640  0.42248517     0.36100
C1024       C  0.59483789  0.18759382  0.35075335     0.36800
N1025       N  0.68145676  0.22083823  0.51424583    -0.44000
N1026       N  0.67263249  0.28375620  0.35495523    -0.44400
N1027       N  0.59367291  0.16814065  0.33536856    -0.41800
N1028       N  0.60939324  0.30636519  0.43617584    -0.43200
H1029       H  0.56035270  0.27081385  0.39410022     0.13000
H1030       H  0.64018889  0.20170225  0.38169537     0.09400
H1031       H  0.63990473  0.21987857  0.45332542     0.10500
H1032       H  0.71520407  0.28504751  0.41583778     0.16300
C1033       C  0.39156224  0.25651246  0.38499796    -0.01900
C1034       C  0.38662545  0.23736512  0.40769496     0.06700
C1035       C  0.40739655  0.21669107  0.41429920    -0.07800
C1036       C  0.43324448  0.21527864  0.39901018     0.04200
C1037       C  0.43861134  0.23503924  0.37671330    -0.15100
C1038       C  0.41730932  0.25521915  0.36980099    -0.08400
C1039       C  0.36141731  0.24085617  0.42666597     0.05100
C1040       C  0.33368491  0.23546240  0.41605877    -0.09500
C1041       C  0.30935583  0.24194486  0.43257484     0.00100
C1042       C  0.31280505  0.25409054  0.46011626     0.00000
C1043       C  0.34067987  0.25834405  0.47096260    -0.13100
C1044       C  0.36482504  0.25197462  0.45453270     0.00400
C1045       C  0.28130323  0.23760840  0.42013221     0.39700
C1046       C  0.39286684  0.25856937  0.46611304     0.36300
C1047       C  0.37101616  0.27842944  0.37762304     0.36100
C1048       C  0.45408382  0.19406365  0.40742696     0.36800
N1049       N  0.25876775  0.23419582  0.41022316    -0.44000
N1050       N  0.41534970  0.26388371  0.47528692    -0.44400
N1051       N  0.47075406  0.17702721  0.41419621    -0.41800
N1052       N  0.35457664  0.29598762  0.37168176    -0.43200
H1053       H  0.42073632  0.27022834  0.35242490     0.13000
H1054       H  0.40365576  0.20210320  0.43196415     0.09400
H1055       H  0.33108692  0.22706016  0.39451341     0.10500
H1056       H  0.34367576  0.26741510  0.49219658     0.16300
C1057       C  0.56427770  0.34201571  0.23991048    -0.01900
C1058       C  0.58877330  0.35075596  0.25518280     0.06700
C1059       C  0.60045881  0.33308944  0.27638949    -0.07800
C1060       C  0.58685310  0.30750847  0.28381891     0.04200
C1061       C  0.56128912  0.29946356  0.26963124    -0.15100
C1062       C  0.55090737  0.31629003  0.24697602    -0.08400
C1063       C  0.60176181  0.37895308  0.25035460     0.05100
C1064       C  0.59068117  0.40264048  0.26511946    -0.09500
C1065       C  0.60361667  0.42950802  0.26253550     0.00100
C1066       C  0.62818193  0.43258110  0.24514883     0.00000
C1067       C  0.63825471  0.40902599  0.22929374    -0.13100
C1068       C  0.62520686  0.38228374  0.23178470     0.00400
C1069       C  0.59087437  0.45360249  0.27720164     0.39700
C1070       C  0.63633199  0.35847492  0.21543294     0.36300
C1071       C  0.55178607  0.35977799  0.21792475     0.36100
C1072       C  0.59917266  0.29023935  0.30632207     0.36800
N1073       N  0.58049354  0.47296291  0.28872309    -0.44000
N1074       N  0.64509747  0.33937120  0.20225762    -0.44400
N1075       N  0.60896631  0.27634261  0.32433337    -0.41800
N1076       N  0.54175809  0.37408668  0.20037756    -0.43200
H1077       H  0.53117904  0.31040834  0.23607681     0.13000
H1078       H  0.61964006  0.33981585  0.28777251     0.09400
H1079       H  0.57210220  0.40000471  0.27887497     0.10500
H1080       H  0.65705572  0.41122862  0.21574496     0.16300
C1081       C  0.39172605  0.39877202  0.28530226    -0.01900
C1082       C  0.40023897  0.38362249  0.26059064     0.06700
C1083       C  0.39467133  0.39533143  0.23355167    -0.07800
C1084       C  0.38041482  0.42161570  0.23076686     0.04200
C1085       C  0.37139637  0.43681566  0.25557695    -0.15100
C1086       C  0.37738805  0.42497809  0.28265437    -0.08400
C1087       C  0.41683873  0.35657139  0.26267086     0.05100
C1088       C  0.40282507  0.33076269  0.26946251    -0.09500
C1089       C  0.41857867  0.30546956  0.27387175     0.00100
C1090       C  0.44874227  0.30603500  0.27162262     0.00000
C1091       C  0.46250670  0.33166753  0.26404019    -0.13100
C1092       C  0.44687862  0.35673390  0.25942228     0.00400
C1093       C  0.40369076  0.27979753  0.28253307     0.39700
C1094       C  0.46224637  0.38273685  0.25273330     0.36300
C1095       C  0.39803358  0.38808476  0.31362215     0.36100
C1096       C  0.37430536  0.43153444  0.20211715     0.36800
N1097       N  0.39186123  0.25917431  0.28954028    -0.44000
N1098       N  0.47452585  0.40359754  0.24739496    -0.44400
N1099       N  0.36931051  0.43924399  0.17909415    -0.41800
N1100       N  0.40318269  0.37956338  0.33631515    -0.43200
H1101       H  0.37081335  0.43620062  0.30195527     0.13000
H1102       H  0.40146041  0.38378160  0.21450913     0.09400
H1103       H  0.37970006  0.33060266  0.27209691     0.10500
H1104       H  0.48575687  0.33231026  0.26266824     0.16300
C1105       C  0.65040936  0.90114923  0.75689797    -0.01900
C1106       C  0.62909601  0.89202961  0.77620743     0.06700
C1107       C  0.62818273  0.90385137  0.80377501    -0.07800
C1108       C  0.64735701  0.92553603  0.81193539     0.04200
C1109       C  0.66771809  0.93617814  0.79193645    -0.15100
C1110       C  0.66943075  0.92305857  0.76479639    -0.08400
C1111       C  0.60580642  0.87240850  0.76697284     0.05100
C1112       C  0.60807753  0.84296055  0.77207009    -0.09500
C1113       C  0.58669095  0.82397810  0.76249054     0.00100
C1114       C  0.56235260  0.83459036  0.74769371     0.00000
C1115       C  0.56020162  0.86423872  0.74297662    -0.13100
C1116       C  0.58158840  0.88305617  0.75247673     0.00400
C1117       C  0.59113802  0.79372262  0.76680606     0.39700
C1118       C  0.57843029  0.91330541  0.74701132     0.36300
C1119       C  0.65268712  0.88863104  0.72866173     0.36100
C1120       C  0.64561703  0.93605544  0.84104758     0.36800
N1121       N  0.59483025  0.76947262  0.77014710    -0.44000
N1122       N  0.57611399  0.93757915  0.74273900    -0.44400
N1123       N  0.64421316  0.94435792  0.86441135    -0.41800
N1124       N  0.65449337  0.87843407  0.70609669    -0.43200
H1125       H  0.68521117  0.93037264  0.74935641     0.13000
H1126       H  0.61195136  0.89653744  0.81875945     0.09400
H1127       H  0.62686481  0.83476758  0.78304845     0.10500
H1128       H  0.54174636  0.87282153  0.73173866     0.16300
C1129       C  0.63469698  0.08414475  0.75525750    -0.01900
C1130       C  0.62694115  0.10641472  0.77427107     0.06700
C1131       C  0.63885403  0.10681029  0.80183611    -0.07800
C1132       C  0.65828787  0.08572205  0.81068977     0.04200
C1133       C  0.66644310  0.06341386  0.79159618    -0.15100
C1134       C  0.65448626  0.06320443  0.76386942    -0.08400
C1135       C  0.60584231  0.12905344  0.76627795     0.05100
C1136       C  0.58003296  0.13123234  0.78168675    -0.09500
C1137       C  0.55920286  0.15162901  0.77437186     0.00100
C1138       C  0.56393704  0.17022918  0.75100184     0.00000
C1139       C  0.59012835  0.16858084  0.73615502    -0.13100
C1140       C  0.61117108  0.14859881  0.74388313     0.00400
C1141       C  0.53258040  0.15197282  0.79021152     0.39700
C1142       C  0.63834286  0.14902297  0.72903411     0.36300
C1143       C  0.62168492  0.08161401  0.72725646     0.36100
C1144       C  0.66933810  0.08791505  0.83953531     0.36800
N1145       N  0.51121139  0.15236778  0.80284075    -0.44000
N1146       N  0.66018858  0.14943150  0.71725371    -0.44400
N1147       N  0.67771919  0.08993201  0.86281139    -0.41800
N1148       N  0.61119990  0.07955702  0.70484182    -0.43200
H1149       H  0.65998156  0.04612794  0.74902295     0.13000
H1150       H  0.63285792  0.12380246  0.81661258     0.09400
H1151       H  0.57590666  0.11651322  0.79916171     0.10500
H1152       H  0.59418398  0.18302191  0.71841762     0.16300
C1153       C  0.76237113  0.40244454  0.15635901    -0.01900
C1154       C  0.74602145  0.39919368  0.13111965     0.06700
C1155       C  0.72155642  0.41603840  0.12725512    -0.07800
C1156       C  0.71324763  0.43618832  0.14787587     0.04200
C1157       C  0.72986959  0.44004974  0.17322464    -0.15100
C1158       C  0.75427810  0.42272509  0.17709269    -0.08400
C1159       C  0.75413067  0.37852809  0.10826525     0.05100
C1160       C  0.75216012  0.34904348  0.11364386    -0.09500
C1161       C  0.75977656  0.32894952  0.09258610     0.00100
C1162       C  0.76973967  0.33839397  0.06561971     0.00000
C1163       C  0.77142096  0.36792404  0.06024918    -0.13100
C1164       C  0.76353713  0.38793789  0.08115596     0.00400
C1165       C  0.75842691  0.29890823  0.09966394     0.39700
C1166       C  0.76589196  0.41801903  0.07448775     0.36300
C1167       C  0.78793626  0.38566326  0.16101842     0.36100
C1168       C  0.68734486  0.45216204  0.14214952     0.36800
N1169       N  0.75740683  0.27481862  0.10529377    -0.44000
N1170       N  0.76774737  0.44210027  0.06903719    -0.44400
N1171       N  0.66656130  0.46486187  0.13745256    -0.41800
N1172       N  0.80839565  0.37211721  0.16458846    -0.43200
H1173       H  0.76729345  0.42514436  0.19622717     0.13000
H1174       H  0.70882472  0.41334480  0.10794260     0.09400
H1175       H  0.74480085  0.34174950  0.13443595     0.10500
H1176       H  0.77896303  0.37542280  0.03959154     0.16300
C1177       C  0.74261061  0.34737211  0.90420074    -0.01900
C1178       C  0.75618540  0.37390382  0.89935048     0.06700
C1179       C  0.77972785  0.38199400  0.91630016    -0.07800
C1180       C  0.78986482  0.36404681  0.93792725     0.04200
C1181       C  0.77607762  0.33759667  0.94305217    -0.15100
C1182       C  0.75247711  0.32951321  0.92610778    -0.08400
C1183       C  0.74542551  0.39427940  0.87767002     0.05100
C1184       C  0.71765378  0.40531854  0.88072778    -0.09500
C1185       C  0.70723360  0.42607952  0.86192776     0.00100
C1186       C  0.72511752  0.43653875  0.83973205     0.00000
C1187       C  0.75274266  0.42491541  0.83642912    -0.13100
C1188       C  0.76291406  0.40388610  0.85504096     0.00400
C1189       C  0.67853050  0.43673107  0.86672869     0.39700
C1190       C  0.79123135  0.39225328  0.85033705     0.36300
C1191       C  0.71891661  0.33783295  0.88660812     0.36100
C1192       C  0.81357078  0.37396894  0.95533733     0.36800
N1193       N  0.65548347  0.44512957  0.87054944    -0.44000
N1194       N  0.81390003  0.38288160  0.84657022    -0.44400
N1195       N  0.83255000  0.38186908  0.96931570    -0.41800
N1196       N  0.69995606  0.33030777  0.87240682    -0.43200
H1197       H  0.74203711  0.30922222  0.92974920     0.13000
H1198       H  0.78983790  0.40252893  0.91292745     0.09400
H1199       H  0.70425233  0.39805891  0.89830377     0.10500
H1200       H  0.76657147  0.43232844  0.81925671     0.16300
C1201       C  0.74974266  0.12243777  0.87235866    -0.01900
C1202       C  0.74594445  0.12791102  0.90180390     0.06700
C1203       C  0.73874819  0.10529321  0.92024928    -0.07800
C1204       C  0.73685912  0.07712878  0.90993064     0.04200
C1205       C  0.74216032  0.07153560  0.88075470    -0.15100
C1206       C  0.74783355  0.09439493  0.86210325    -0.08400
C1207       C  0.75382315  0.15588055  0.91454028     0.05100
C1208       C  0.73263754  0.17319096  0.92707806    -0.09500
C1209       C  0.74029196  0.19763809  0.94292293     0.00100
C1210       C  0.76957148  0.20457195  0.94657954     0.00000
C1211       C  0.79049656  0.18812825  0.93258083    -0.13100
C1212       C  0.78291079  0.16394867  0.91671094     0.00400
C1213       C  0.71800188  0.21384954  0.95700088     0.39700
C1214       C  0.80552636  0.14661106  0.90455468     0.36300
C1215       C  0.75669738  0.14510091  0.85254172     0.36100
C1216       C  0.73172636  0.05420453  0.92993307     0.36800
N1217       N  0.70020349  0.22692305  0.96831335    -0.44000
N1218       N  0.82357852  0.13268232  0.89477890    -0.44400
N1219       N  0.72782865  0.03579233  0.94600555    -0.41800
N1220       N  0.76241599  0.16323863  0.83669296    -0.43200
H1221       H  0.75124182  0.09021682  0.83947028     0.13000
H1222       H  0.73618746  0.10945320  0.94298542     0.09400
H1223       H  0.71026205  0.16696618  0.92540294     0.10500
H1224       H  0.81303934  0.19342233  0.93523890     0.16300
C1225       C  0.88607025  0.73057482  0.58840157    -0.01900
C1226       C  0.87949083  0.75250411  0.60805470     0.06700
C1227       C  0.85264535  0.76594778  0.60656268    -0.07800
C1228       C  0.83229481  0.75773299  0.58584738     0.04200
C1229       C  0.83890374  0.73574748  0.56582472    -0.15100
C1230       C  0.86604732  0.72256960  0.56751300    -0.08400
C1231       C  0.90049545  0.76111073  0.63046441     0.05100
C1232       C  0.92583510  0.77497005  0.62214642    -0.09500
C1233       C  0.94751623  0.78101453  0.64208550     0.00100
C1234       C  0.94409210  0.77285365  0.67114175     0.00000
C1235       C  0.91844907  0.75929586  0.67941339    -0.13100
C1236       C  0.89666094  0.75363321  0.65944431     0.00400
C1237       C  0.97327949  0.79481889  0.63178479     0.39700
C1238       C  0.87079119  0.73959249  0.66902009     0.36300
C1239       C  0.91293950  0.71526065  0.58999610     0.36100
C1240       C  0.80468912  0.77173329  0.58639406     0.36800
N1241       N  0.99386953  0.80594801  0.62351073    -0.44000
N1242       N  0.84998896  0.72843188  0.67667960    -0.44400
N1243       N  0.78253372  0.78290022  0.58693357    -0.41800
N1244       N  0.93446522  0.70303056  0.59152615    -0.43200
H1245       H  0.87162481  0.70547210  0.55276729     0.13000
H1246       H  0.84749974  0.78272376  0.62184179     0.09400
H1247       H  0.92885447  0.78064523  0.59979450     0.10500
H1248       H  0.91522961  0.75337206  0.70166633     0.16300
C1249       C  0.13766613  0.77300532  0.59603099    -0.01900
C1250       C  0.13396048  0.75504799  0.62001193     0.06700
C1251       C  0.15098194  0.73058941  0.62271246    -0.07800
C1252       C  0.17097964  0.72330039  0.60161422     0.04200
C1253       C  0.17360526  0.74030257  0.57667688    -0.15100
C1254       C  0.15735708  0.76549956  0.57462271    -0.08400
C1255       C  0.11178315  0.76082870  0.64202990     0.05100
C1256       C  0.08753584  0.74304976  0.64317656    -0.09500
C1257       C  0.06534911  0.74847617  0.66268601     0.00100
C1258       C  0.06734696  0.77214154  0.68159676     0.00000
C1259       C  0.09211318  0.78938911  0.68090780    -0.13100
C1260       C  0.11431999  0.78378546  0.66149709     0.00400
C1261       C  0.04018007  0.73040035  0.66162662     0.39700
C1262       C  0.13961707  0.80167030  0.66199611     0.36300
C1263       C  0.12081539  0.79866703  0.59255430     0.36100
C1264       C  0.18920523  0.69891518  0.60675672     0.36800
N1265       N  0.01997651  0.71597054  0.66077063    -0.44000
N1266       N  0.15997709  0.81588965  0.66231907    -0.44400
N1267       N  0.20392175  0.67957876  0.61145713    -0.41800
N1268       N  0.10739375  0.81931280  0.58989646    -0.43200
H1269       H  0.15928556  0.77895342  0.55563323     0.13000
H1270       H  0.14860324  0.71705866  0.64159044     0.09400
H1271       H  0.08564381  0.72528162  0.62824581     0.10500
H1272       H  0.09407215  0.80743084  0.69550783     0.16300
C1273       C  0.90294692  0.90015978  0.77848521    -0.01900
C1274       C  0.87935265  0.89459686  0.76032074     0.06700
C1275       C  0.88327855  0.87734641  0.73602572    -0.07800
C1276       C  0.90992325  0.86462657  0.73028586     0.04200
C1277       C  0.93336751  0.86915398  0.74921047    -0.15100
C1278       C  0.92947831  0.88732325  0.77297223    -0.08400
C1279       C  0.85072732  0.90736366  0.76606435     0.05100
C1280       C  0.83991847  0.92792254  0.74711049    -0.09500
C1281       C  0.81538510  0.94384420  0.75403405     0.00100
C1282       C  0.80135022  0.93932445  0.78056938     0.00000
C1283       C  0.81082399  0.91691636  0.79824581    -0.13100
C1284       C  0.83514884  0.90085821  0.79112198     0.00400
C1285       C  0.80649660  0.96592396  0.73436364     0.39700
C1286       C  0.84411634  0.87823114  0.81013474     0.36300
C1287       C  0.90054918  0.91930966  0.80273389     0.36100
C1288       C  0.91197799  0.84634039  0.70538163     0.36800
N1289       N  0.79938933  0.98352133  0.71847506    -0.44000
N1290       N  0.85132014  0.86008474  0.82534031    -0.44400
N1291       N  0.91331143  0.83189729  0.68523672    -0.41800
N1292       N  0.89858052  0.93466545  0.82214633    -0.43200
H1293       H  0.94719298  0.89134978  0.78756034     0.13000
H1294       H  0.86527037  0.87339489  0.72177116     0.09400
H1295       H  0.85154090  0.93257012  0.72754046     0.10500
H1296       H  0.79976245  0.91255570  0.81817762     0.16300
C1297       C  0.34791891  0.09863055  0.75216506    -0.01900
C1298       C  0.37441126  0.10246627  0.76630898     0.06700
C1299       C  0.38153859  0.08445607  0.78905403    -0.07800
C1300       C  0.36330121  0.06232835  0.79756964     0.04200
C1301       C  0.33674198  0.05772644  0.78314658    -0.15100
C1302       C  0.32936630  0.07639817  0.76061152    -0.08400
C1303       C  0.39607122  0.12404293  0.75734646     0.05100
C1304       C  0.39172210  0.15309323  0.76364356    -0.09500
C1305       C  0.41336666  0.17340976  0.75845541     0.00100
C1306       C  0.44002514  0.16462482  0.74672059     0.00000
C1307       C  0.44396710  0.13552891  0.74005373    -0.13100
C1308       C  0.42239744  0.11536744  0.74527323     0.00400
C1309       C  0.40715354  0.20313635  0.76433023     0.39700
C1310       C  0.42773740  0.08575514  0.73809064     0.36300
C1311       C  0.33969769  0.11676099  0.72855783     0.36100
C1312       C  0.37311736  0.04475727  0.82102738     0.36800
N1313       N  0.40218053  0.22697813  0.76893997    -0.44000
N1314       N  0.43194086  0.06199954  0.73240857    -0.44400
N1315       N  0.38125777  0.03080908  0.83980353    -0.41800
N1316       N  0.33306031  0.13128765  0.70963443    -0.43200
H1317       H  0.30915306  0.07357612  0.74939421     0.13000
H1318       H  0.40188981  0.08752311  0.80003371     0.09400
H1319       H  0.37152712  0.15982164  0.77303427     0.10500
H1320       H  0.46408383  0.12839839  0.73078686     0.16300
C1321       C  0.41089890  0.87655108  0.73660538    -0.01900
C1322       C  0.39323203  0.86841016  0.75969681     0.06700
C1323       C  0.39777990  0.84197436  0.77314630    -0.07800
C1324       C  0.41992024  0.82381414  0.76412563     0.04200
C1325       C  0.43768982  0.83205264  0.74104119    -0.15100
C1326       C  0.43272907  0.85834399  0.72740658    -0.08400
C1327       C  0.37080766  0.88798774  0.77063148     0.05100
C1328       C  0.34850285  0.89631220  0.75225964    -0.09500
C1329       C  0.32930569  0.91788649  0.76025590     0.00100
C1330       C  0.33226879  0.93140021  0.78728116     0.00000
C1331       C  0.35361856  0.92172845  0.80625501    -0.13100
C1332       C  0.37285989  0.90031998  0.79814008     0.00400
C1333       C  0.30686950  0.92549488  0.74031492     0.39700
C1334       C  0.39543004  0.89248604  0.81784770     0.36300
C1335       C  0.40777457  0.90399668  0.72274771     0.36100
C1336       C  0.42343854  0.79668788  0.77844250     0.36800
N1337       N  0.28891866  0.93153935  0.72428265    -0.44000
N1338       N  0.41347825  0.88617148  0.83366105    -0.44400
N1339       N  0.42629507  0.77494682  0.78991211    -0.41800
N1340       N  0.40518488  0.92600614  0.71173645    -0.43200
H1341       H  0.44645122  0.86507988  0.70989855     0.13000
H1342       H  0.38409010  0.83564022  0.79082879     0.09400
H1343       H  0.34664653  0.88645208  0.73125290     0.10500
H1344       H  0.35605035  0.93163902  0.82717413     0.16300
C1345       C  0.11928971  0.86012221  0.77755054    -0.01900
C1346       C  0.12478975  0.88789601  0.76709259     0.06700
C1347       C  0.10283700  0.90271606  0.75283922    -0.07800
C1348       C  0.07542508  0.89067961  0.74968998     0.04200
C1349       C  0.06957674  0.86338601  0.76121244    -0.15100
C1350       C  0.09180462  0.84830016  0.77484218    -0.08400
C1351       C  0.15226816  0.90300279  0.77305167     0.05100
C1352       C  0.16915441  0.91309093  0.75018881    -0.09500
C1353       C  0.19325130  0.93056513  0.75527830     0.00100
C1354       C  0.20073007  0.93788445  0.78365900     0.00000
C1355       C  0.18455889  0.92663183  0.80640860    -0.13100
C1356       C  0.16032719  0.90982426  0.80140769     0.00400
C1357       C  0.20831692  0.94264092  0.73115519     0.39700
C1358       C  0.14281604  0.90194199  0.82570470     0.36300
C1359       C  0.14153491  0.84332924  0.79100584     0.36100
C1360       C  0.05341017  0.90730360  0.73574765     0.36800
N1361       N  0.22030498  0.95249755  0.71183371    -0.44000
N1362       N  0.12880021  0.89574899  0.84520047    -0.44400
N1363       N  0.03572035  0.92061022  0.72459816    -0.41800
N1364       N  0.15933401  0.82992307  0.80186923    -0.43200
H1365       H  0.08779924  0.82694680  0.78306794     0.13000
H1366       H  0.10691050  0.92415910  0.74490589     0.09400
H1367       H  0.16280918  0.90824143  0.72834099     0.10500
H1368       H  0.18996219  0.93237228  0.82831108     0.16300
C1369       C  0.76925312  0.59389893  0.85932605    -0.01900
C1370       C  0.75087042  0.60306208  0.88148132     0.06700
C1371       C  0.72286919  0.59238256  0.88284733    -0.07800
C1372       C  0.71330609  0.57167047  0.86351297     0.04200
C1373       C  0.73224298  0.56088428  0.84228288    -0.15100
C1374       C  0.75989017  0.57282334  0.84000651    -0.08400
C1375       C  0.76043664  0.62263384  0.90454390     0.05100
C1376       C  0.76629386  0.65139113  0.89824314    -0.09500
C1377       C  0.77318614  0.67074914  0.92018787     0.00100
C1378       C  0.77416841  0.66121539  0.94883709     0.00000
C1379       C  0.76905914  0.63233188  0.95497328    -0.13100
C1380       C  0.76203732  0.61306927  0.93316004     0.00400
C1381       C  0.78074061  0.69977754  0.91272537     0.39700
C1382       C  0.75655270  0.58356619  0.94062026     0.36300
C1383       C  0.79792599  0.60528115  0.85645172     0.36100
C1384       C  0.68373708  0.56258818  0.86586667     0.36800
N1385       N  0.78716263  0.72296151  0.90682960    -0.44000
N1386       N  0.75201424  0.55995376  0.94654801    -0.44400
N1387       N  0.66000728  0.55549997  0.86785240    -0.41800
N1388       N  0.82083989  0.61455117  0.85399564    -0.43200
H1389       H  0.77443971  0.56532102  0.82347383     0.13000
H1390       H  0.70849092  0.60008733  0.89947408     0.09400
H1391       H  0.76523922  0.65871908  0.87621633     0.10500
H1392       H  0.77026045  0.62487561  0.97696226     0.16300
C1393       C  0.78281783  0.62082850  0.10554885    -0.01900
C1394       C  0.75503161  0.62238387  0.11725170     0.06700
C1395       C  0.73574468  0.64290312  0.10673201    -0.07800
C1396       C  0.74374992  0.66174286  0.08477169     0.04200
C1397       C  0.77186962  0.66061451  0.07335623    -0.15100
C1398       C  0.79101901  0.63991305  0.08405146    -0.08400
C1399       C  0.74541202  0.60183441  0.13949259     0.05100
C1400       C  0.75949408  0.60113088  0.16618908    -0.09500
C1401       C  0.75192512  0.58083716  0.18696418     0.00100
C1402       C  0.72979202  0.56111015  0.18109069     0.00000
C1403       C  0.71534696  0.56226840  0.15472602    -0.13100
C1404       C  0.72306974  0.58220797  0.13390856     0.00400
C1405       C  0.76629437  0.58129024  0.21440537     0.39700
C1406       C  0.70852413  0.58128493  0.10656998     0.36300
C1407       C  0.80288255  0.59900750  0.11438866     0.36100
C1408       C  0.72265327  0.68190672  0.07461266     0.36800
N1409       N  0.77761852  0.58166943  0.23649915    -0.44000
N1410       N  0.69684696  0.58047421  0.08467632    -0.44400
N1411       N  0.70561157  0.69791139  0.06639889    -0.41800
N1412       N  0.81883050  0.58141782  0.12146138    -0.43200
H1413       H  0.81241864  0.63811949  0.07515915     0.13000
H1414       H  0.71424959  0.64400214  0.11557366     0.09400
H1415       H  0.77650342  0.61638400  0.17069335     0.10500
H1416       H  0.69838351  0.54697792  0.15008016     0.16300
C1417       C  0.90193758  0.75752757  0.91128598    -0.01900
C1418       C  0.89583772  0.73884390  0.88824220     0.06700
C1419       C  0.88074654  0.71347006  0.89353263    -0.07800
C1420       C  0.87036050  0.70718894  0.92097623     0.04200
C1421       C  0.87471002  0.72689024  0.94382979    -0.15100
C1422       C  0.89114919  0.75162329  0.93860990    -0.08400
C1423       C  0.90644542  0.74472514  0.85884126     0.05100
C1424       C  0.92657298  0.72607164  0.84672726    -0.09500
C1425       C  0.94091102  0.73318268  0.82138584     0.00100
C1426       C  0.93540779  0.75983854  0.80797406     0.00000
C1427       C  0.91309437  0.77707095  0.81865872    -0.13100
C1428       C  0.89833571  0.76948377  0.84365898     0.00400
C1429       C  0.96329091  0.71407455  0.81174602     0.39700
C1430       C  0.87526226  0.78753503  0.85365732     0.36300
C1431       C  0.91968166  0.78263393  0.90756092     0.36100
C1432       C  0.85508085  0.68052864  0.92456820     0.36800
N1433       N  0.98133253  0.69879451  0.80423894    -0.44000
N1434       N  0.85660902  0.80176566  0.86171408    -0.44400
N1435       N  0.84311238  0.65898082  0.92726587    -0.41800
N1436       N  0.93395258  0.80270552  0.90459715    -0.43200
H1437       H  0.89528590  0.76672288  0.95581609     0.13000
H1438       H  0.87680122  0.69864967  0.87602364     0.09400
H1439       H  0.93239752  0.70667761  0.85807643     0.10500
H1440       H  0.90801902  0.79714385  0.80818139     0.16300
C1441       C  0.72451096  0.89431511  0.91697417    -0.01900
C1442       C  0.75181820  0.88131670  0.91788487     0.06700
C1443       C  0.77493885  0.89489788  0.90437666    -0.07800
C1444       C  0.77170519  0.92130881  0.89089467     0.04200
C1445       C  0.74432829  0.93445554  0.88958786    -0.15100
C1446       C  0.72089035  0.92047350  0.90254793    -0.08400
C1447       C  0.75775741  0.85423008  0.93358705     0.05100
C1448       C  0.74418609  0.82850305  0.92540292    -0.09500
C1449       C  0.75227496  0.80227540  0.93778938     0.00100
C1450       C  0.77492714  0.80159646  0.95783347     0.00000
C1451       C  0.78785345  0.82735486  0.96642348    -0.13100
C1452       C  0.77915923  0.85347403  0.95500124     0.00400
C1453       C  0.73778331  0.77635700  0.92905546     0.39700
C1454       C  0.79219197  0.87935164  0.96604351     0.36300
C1455       C  0.70022807  0.88177815  0.93148165     0.36100
C1456       C  0.79709903  0.93381463  0.87832663     0.36800
N1457       N  0.72615890  0.75553053  0.92215833    -0.44000
N1458       N  0.80255233  0.90009990  0.97491379    -0.44400
N1459       N  0.81777049  0.94352703  0.86860690    -0.41800
N1460       N  0.68078262  0.87178755  0.94321579    -0.43200
H1461       H  0.69978345  0.93018124  0.90177221     0.13000
H1462       H  0.79593159  0.88486219  0.90473042     0.09400
H1463       H  0.72773749  0.82883769  0.90894855     0.10500
H1464       H  0.80441174  0.82715867  0.98281405     0.16300
C1465       C  0.11743799  0.74462122  0.43364309    -0.01900
C1466       C  0.12702674  0.75377009  0.40658094     0.06700
C1467       C  0.15647973  0.75672427  0.40137541    -0.07800
C1468       C  0.17651686  0.75057594  0.42287454     0.04200
C1469       C  0.16690379  0.74179412  0.45023547    -0.15100
C1470       C  0.13734614  0.73872527  0.45519072    -0.08400
C1471       C  0.10632333  0.76089470  0.38377339     0.05100
C1472       C  0.09863459  0.78955485  0.38002262    -0.09500
C1473       C  0.07681602  0.79709868  0.36092264     0.00100
C1474       C  0.06244370  0.77557123  0.34497495     0.00000
C1475       C  0.07111464  0.74692026  0.34798987    -0.13100
C1476       C  0.09270965  0.73944051  0.36742203     0.00400
C1477       C  0.06998444  0.82709194  0.35805254     0.39700
C1478       C  0.10013856  0.70964431  0.37084174     0.36300
C1479       C  0.08723134  0.74128788  0.43972639     0.36100
C1480       C  0.20666869  0.75194350  0.41580076     0.36800
N1481       N  0.06465125  0.85118426  0.35598545    -0.44000
N1482       N  0.10610555  0.68579149  0.37375158    -0.44400
N1483       N  0.23081752  0.75286762  0.41007544    -0.41800
N1484       N  0.06300349  0.73858539  0.44446427    -0.43200
H1485       H  0.12974003  0.73177925  0.47603638     0.13000
H1486       H  0.16377996  0.76348981  0.38037057     0.09400
H1487       H  0.10928510  0.80602912  0.39263824     0.10500
H1488       H  0.06041115  0.73020294  0.33576778     0.16300
C1489       C  0.89956240  0.73855226  0.35478926    -0.01900
C1490       C  0.89032580  0.75572309  0.37793799     0.06700
C1491       C  0.90342323  0.78233814  0.38266335    -0.07800
C1492       C  0.92581471  0.79180254  0.36513558     0.04200
C1493       C  0.93575143  0.77423707  0.34240516    -0.15100
C1494       C  0.92223091  0.74778293  0.33740908    -0.08400
C1495       C  0.86920400  0.74512943  0.39921589     0.05100
C1496       C  0.87589672  0.72029778  0.41456364    -0.09500
C1497       C  0.85784445  0.71023963  0.43617515     0.00100
C1498       C  0.83256086  0.72552893  0.44319093     0.00000
C1499       C  0.82580842  0.75038185  0.42772907    -0.13100
C1500       C  0.84373765  0.76011171  0.40571123     0.00400
C1501       C  0.86665706  0.68486054  0.45144788     0.39700
C1502       C  0.83526607  0.78511405  0.38971766     0.36300
C1503       C  0.88584408  0.71153888  0.34835010     0.36100
C1504       C  0.93893741  0.81903725  0.37193987     0.36800
N1505       N  0.87379213  0.66447603  0.46353757    -0.44000
N1506       N  0.82834122  0.80509084  0.37685863    -0.44400
N1507       N  0.94941361  0.84087640  0.37736407    -0.41800
N1508       N  0.87471289  0.68993587  0.34330756    -0.43200
H1509       H  0.92924538  0.73434898  0.31974539     0.13000
H1510       H  0.89669591  0.79540540  0.40071592     0.09400
H1511       H  0.89571555  0.70900025  0.40998695     0.10500
H1512       H  0.80637028  0.76213050  0.43271310     0.16300
C1513       C  0.95003724  0.73344006  0.16048271    -0.01900
C1514       C  0.91985165  0.73447817  0.16069212     0.06700
C1515       C  0.90538226  0.74215254  0.18599112    -0.07800
C1516       C  0.92078407  0.75085960  0.21035370     0.04200
C1517       C  0.95091870  0.75240552  0.20906988    -0.15100
C1518       C  0.96531927  0.74264552  0.18453577    -0.08400
C1519       C  0.90365030  0.73269605  0.13351748     0.05100
C1520       C  0.89737852  0.70599510  0.12129893    -0.09500
C1521       C  0.88322968  0.70409036  0.09479424     0.00100
C1522       C  0.87556989  0.72940701  0.07994894     0.00000
C1523       C  0.88219562  0.75605498  0.09242156    -0.13100
C1524       C  0.89598945  0.75785576  0.11890431     0.00400
C1525       C  0.87602743  0.67595202  0.08410854     0.39700
C1526       C  0.90232373  0.78583268  0.13060827     0.36300
C1527       C  0.96573788  0.72498205  0.13515817     0.36100
C1528       C  0.90534670  0.76026182  0.23548749     0.36800
N1529       N  0.87030767  0.65330444  0.07573519    -0.44000
N1530       N  0.90734491  0.80823923  0.14000726    -0.44400
N1531       N  0.89310734  0.76774125  0.25574188    -0.41800
N1532       N  0.97833242  0.71812019  0.11490558    -0.43200
H1533       H  0.98858324  0.74356974  0.18369644     0.13000
H1534       H  0.88212053  0.74293610  0.18611308     0.09400
H1535       H  0.90343191  0.68665031  0.13258684     0.10500
H1536       H  0.87646639  0.77572016  0.08151642     0.16300
C1537       C  0.92605589  0.22607010  0.39663344    -0.01900
C1538       C  0.90005375  0.23959363  0.38941532     0.06700
C1539       C  0.89533824  0.24792468  0.36093571    -0.07800
C1540       C  0.91609148  0.24296292  0.33965791     0.04200
C1541       C  0.94243720  0.22970218  0.34687498    -0.15100
C1542       C  0.94688782  0.22123769  0.37549900    -0.08400
C1543       C  0.87854847  0.24724723  0.41170781     0.05100
C1544       C  0.88113970  0.27380752  0.42525619    -0.09500
C1545       C  0.86170110  0.28242332  0.44642039     0.00100
C1546       C  0.83879096  0.26400851  0.45480967     0.00000
C1547       C  0.83621075  0.23730120  0.44089494    -0.13100
C1548       C  0.85587215  0.22885528  0.41955756     0.00400
C1549       C  0.86583595  0.31070934  0.45838022     0.39700
C1550       C  0.85250350  0.20126577  0.40596791     0.36300
C1551       C  0.93183368  0.21707439  0.42565296     0.36100
C1552       C  0.90905709  0.25021502  0.31042379     0.36800
N1553       N  0.86932503  0.33339416  0.46782428    -0.44000
N1554       N  0.84990495  0.17916102  0.39499222    -0.44400
N1555       N  0.90338054  0.25576995  0.28693400    -0.41800
N1556       N  0.93645140  0.20980875  0.44889655    -0.43200
H1557       H  0.96679306  0.21081305  0.38147953     0.13000
H1558       H  0.87529754  0.25831026  0.35532136     0.09400
H1559       H  0.89851504  0.28802333  0.41909511     0.10500
H1560       H  0.81892909  0.22289394  0.44676050     0.16300
C1561       C  0.11325136  0.21275006  0.35987366    -0.01900
C1562       C  0.11559102  0.23939757  0.37384717     0.06700
C1563       C  0.09543757  0.26085157  0.36790338    -0.07800
C1564       C  0.07215898  0.25559153  0.34951867     0.04200
C1565       C  0.06880982  0.22825169  0.33668862    -0.15100
C1566       C  0.09003724  0.20737785  0.34160564    -0.08400
C1567       C  0.13781460  0.24475975  0.39604954     0.05100
C1568       C  0.15905551  0.26544304  0.39109323    -0.09500
C1569       C  0.17910250  0.27238713  0.41242657     0.00100
C1570       C  0.17802996  0.25843366  0.43923332     0.00000
C1571       C  0.15747908  0.23699200  0.44375614    -0.13100
C1572       C  0.13720186  0.23034594  0.42260309     0.00400
C1573       C  0.20072451  0.29362743  0.40617027     0.39700
C1574       C  0.11486546  0.20998036  0.42928465     0.36300
C1575       C  0.13430686  0.19051604  0.36419131     0.36100
C1576       C  0.05156438  0.27827201  0.34539824     0.36800
N1577       N  0.21808322  0.31053069  0.40087702    -0.44000
N1578       N  0.09688446  0.19374331  0.43463312    -0.44400
N1579       N  0.03510331  0.29650368  0.34212520    -0.41800
N1580       N  0.15117458  0.17271320  0.36772515    -0.43200
H1581       H  0.08834892  0.18650814  0.33145331     0.13000
H1582       H  0.09736315  0.28148544  0.37849567     0.09400
H1583       H  0.15970717  0.27642914  0.37064343     0.10500
H1584       H  0.15622612  0.22654884  0.46447440     0.16300
C1585       C  0.92640857  0.27506626  0.17454437    -0.01900
C1586       C  0.90673488  0.25656985  0.16085059     0.06700
C1587       C  0.90065377  0.22992541  0.17318951    -0.07800
C1588       C  0.91558856  0.22052511  0.19739523     0.04200
C1589       C  0.93694580  0.23812380  0.20993795    -0.15100
C1590       C  0.94085849  0.26593927  0.19922077    -0.08400
C1591       C  0.89537000  0.26249128  0.13174988     0.05100
C1592       C  0.90374468  0.24422457  0.10938358    -0.09500
C1593       C  0.89314566  0.24776383  0.08159821     0.00100
C1594       C  0.87359181  0.27014490  0.07568334     0.00000
C1595       C  0.86583087  0.28893202  0.09806621    -0.13100
C1596       C  0.87638603  0.28518499  0.12593821     0.00400
C1597       C  0.90279132  0.22796371  0.05981589     0.39700
C1598       C  0.86655519  0.30414413  0.14835846     0.36300
C1599       C  0.93407957  0.30234913  0.16226891     0.36100
C1600       C  0.90924611  0.19230837  0.20812560     0.36800
N1601       N  0.91052091  0.21201558  0.04243627    -0.44000
N1602       N  0.85875229  0.31943894  0.16628226    -0.44400
N1603       N  0.90418054  0.16962289  0.21657080    -0.41800
N1604       N  0.94022618  0.32419621  0.15237492    -0.43200
H1605       H  0.95690177  0.27980290  0.20874198     0.13000
H1606       H  0.88525536  0.21577445  0.16289955     0.09400
H1607       H  0.91858262  0.22688319  0.11377364     0.10500
H1608       H  0.85055409  0.30597522  0.09411224     0.16300
C1609       C  0.90600918  0.26242569  0.66408870    -0.01900
C1610       C  0.89684717  0.24659399  0.63991208     0.06700
C1611       C  0.91066962  0.22082454  0.63315711    -0.07800
C1612       C  0.93256114  0.21010546  0.65048642     0.04200
C1613       C  0.94144868  0.22561025  0.67505827    -0.15100
C1614       C  0.92825182  0.25191875  0.68131930    -0.08400
C1615       C  0.87364363  0.25668413  0.62059348     0.05100
C1616       C  0.87686580  0.28303084  0.60673772    -0.09500
C1617       C  0.85710220  0.29199454  0.58609845     0.00100
C1618       C  0.83370997  0.27401305  0.57847040     0.00000
C1619       C  0.83013555  0.24793731  0.59290942    -0.13100
C1620       C  0.84964613  0.23934231  0.61402976     0.00400
C1621       C  0.86237731  0.31914182  0.57227822     0.39700
C1622       C  0.84457512  0.21270611  0.62882896     0.36300
C1623       C  0.89244894  0.28904435  0.67209661     0.36100
C1624       C  0.94589466  0.18351595  0.64194078     0.36800
N1625       N  0.86655057  0.34093302  0.56129216    -0.44000
N1626       N  0.84066353  0.19139480  0.64079399    -0.44400
N1627       N  0.95645049  0.16217187  0.63504067    -0.41800
N1628       N  0.88164341  0.31041877  0.67849080    -0.43200
H1629       H  0.93486374  0.26399880  0.70010891     0.13000
H1630       H  0.90432610  0.20901787  0.61409196     0.09400
H1631       H  0.89544088  0.29628833  0.61143326     0.10500
H1632       H  0.81207716  0.23418986  0.58766173     0.16300
C1633       C  0.15614607  0.22883470  0.60859568    -0.01900
C1634       C  0.12788406  0.23955109  0.60876693     0.06700
C1635       C  0.11875292  0.25687877  0.58610188    -0.07800
C1636       C  0.13720181  0.26396473  0.56357627     0.04200
C1637       C  0.16597221  0.25397744  0.56355469    -0.15100
C1638       C  0.17487225  0.23601213  0.58611193    -0.08400
C1639       C  0.10674265  0.23202556  0.63144850     0.05100
C1640       C  0.11019959  0.24254775  0.65951911    -0.09500
C1641       C  0.08936135  0.23730718  0.68073062     0.00100
C1642       C  0.06443332  0.22131471  0.67385169     0.00000
C1643       C  0.06143182  0.21067259  0.64568465    -0.13100
C1644       C  0.08217938  0.21575704  0.62473940     0.00400
C1645       C  0.09444165  0.24810642  0.70931046     0.39700
C1646       C  0.07794338  0.20366414  0.59649302     0.36300
C1647       C  0.16614553  0.21004727  0.63097774     0.36100
C1648       C  0.12552555  0.28114497  0.54068126     0.36800
N1649       N  0.09851659  0.25670535  0.73225577    -0.44000
N1650       N  0.07456830  0.19396218  0.57387884    -0.44400
N1651       N  0.11610802  0.29487197  0.52234045    -0.41800
N1652       N  0.17405141  0.19494853  0.64894004    -0.43200
H1653       H  0.19668602  0.22795733  0.58654394     0.13000
H1654       H  0.09685926  0.26480148  0.58595598     0.09400
H1655       H  0.12907471  0.25512945  0.66476176     0.10500
H1656       H  0.04266211  0.19822679  0.63976514     0.16300
C1657       C  0.82943466  0.07213267  0.73359480    -0.01900
C1658       C  0.84896428  0.08567125  0.75236950     0.06700
C1659       C  0.84306440  0.08651919  0.78170243    -0.07800
C1660       C  0.81924617  0.07241741  0.79292683     0.04200
C1661       C  0.80061639  0.05692944  0.77456469    -0.15100
C1662       C  0.80530563  0.05787135  0.74480564    -0.08400
C1663       C  0.87658411  0.09819889  0.74297203     0.05100
C1664       C  0.87835031  0.12794371  0.73981670    -0.09500
C1665       C  0.90504954  0.14163466  0.73868616     0.00100
C1666       C  0.93049741  0.12543648  0.74073178     0.00000
C1667       C  0.92883555  0.09551270  0.74194950    -0.13100
C1668       C  0.90203955  0.08180527  0.74331782     0.00400
C1669       C  0.90584902  0.17244796  0.73631875     0.39700
C1670       C  0.90109813  0.05113422  0.74699261     0.36300
C1671       C  0.83417426  0.07203983  0.70304748     0.36100
C1672       C  0.81510363  0.07374613  0.82357455     0.36800
N1673       N  0.90647036  0.19713431  0.73446357    -0.44000
N1674       N  0.90025783  0.02656599  0.75000470    -0.44400
N1675       N  0.81253113  0.07523159  0.84820107    -0.41800
N1676       N  0.83787319  0.07210890  0.67852002    -0.43200
H1677       H  0.79115216  0.04612524  0.73052362     0.13000
H1678       H  0.85780307  0.09748736  0.79606420     0.09400
H1679       H  0.85885495  0.14059717  0.73986163     0.10500
H1680       H  0.94837900  0.08302743  0.74332462     0.16300
C1681       C  0.15905570  0.05638907  0.74571936    -0.01900
C1682       C  0.14779180  0.08018616  0.76044235     0.06700
C1683       C  0.16288888  0.09167412  0.78385793    -0.07800
C1684       C  0.18830527  0.07898915  0.79356747     0.04200
C1685       C  0.19889752  0.05425760  0.77973473    -0.15100
C1686       C  0.18451528  0.04379301  0.75529317    -0.08400
C1687       C  0.11918262  0.09204867  0.75349169     0.05100
C1688       C  0.09674121  0.08736424  0.77285833    -0.09500
C1689       C  0.06983067  0.09990700  0.76874384     0.00100
C1690       C  0.06513247  0.11806240  0.74492012     0.00000
C1691       C  0.08738888  0.12146375  0.72474372    -0.13100
C1692       C  0.11422115  0.10860294  0.72883177     0.00400
C1693       C  0.04776231  0.09386747  0.78959234     0.39700
C1694       C  0.13663401  0.11355194  0.70806003     0.36300
C1695       C  0.14398620  0.04346378  0.72189641     0.36100
C1696       C  0.20309349  0.09189273  0.81754778     0.36800
N1697       N  0.03010303  0.08898670  0.80631840    -0.44000
N1698       N  0.15456177  0.11738701  0.69134377    -0.44400
N1699       N  0.21494615  0.10253864  0.83661223    -0.41800
N1700       N  0.13195089  0.03305024  0.70280793    -0.43200
H1701       H  0.19221754  0.02463822  0.74458411     0.13000
H1702       H  0.15436380  0.11022815  0.79499173     0.09400
H1703       H  0.10046222  0.07413528  0.79157035     0.10500
H1704       H  0.08429783  0.13512917  0.70625482     0.16300
C1705       C  0.91867814  0.26856178  0.91050397    -0.01900
C1706       C  0.90247623  0.26496995  0.88506864     0.06700
C1707       C  0.87243713  0.26554729  0.88662996    -0.07800
C1708       C  0.85846391  0.26816020  0.91303235     0.04200
C1709       C  0.87459727  0.27024240  0.93859223    -0.15100
C1710       C  0.90463081  0.27139526  0.93704258    -0.08400
C1711       C  0.91603482  0.25603684  0.85757761     0.05100
C1712       C  0.91113814  0.22797410  0.84803157    -0.09500
C1713       C  0.92542459  0.21706161  0.82405038     0.00100
C1714       C  0.94491737  0.23448404  0.80878749     0.00000
C1715       C  0.94839451  0.26322023  0.81713827    -0.13100
C1716       C  0.93419804  0.27406435  0.84145714     0.00400
C1717       C  0.92008713  0.18765036  0.81597041     0.39700
C1718       C  0.93897676  0.30345699  0.84980015     0.36300
C1719       C  0.94963926  0.26741526  0.91007983     0.36100
C1720       C  0.82744257  0.26825570  0.91343905     0.36800
N1721       N  0.91563600  0.16405168  0.80976752    -0.44000
N1722       N  0.94283850  0.32702230  0.85650826    -0.44400
N1723       N  0.80260646  0.26844212  0.91373404    -0.41800
N1724       N  0.97445829  0.26649659  0.90961929    -0.43200
H1725       H  0.91709480  0.27299752  0.95663579     0.13000
H1726       H  0.85986837  0.26281159  0.86721366     0.09400
H1727       H  0.89684319  0.21414278  0.86007558     0.10500
H1728       H  0.96343902  0.27672317  0.80566631     0.16300
C1729       C  0.21389091  0.62225899  0.10275034    -0.01900
C1730       C  0.24083632  0.62279703  0.11633127     0.06700
C1731       C  0.26116191  0.64337062  0.10819484    -0.07800
C1732       C  0.25509989  0.66317210  0.08645395     0.04200
C1733       C  0.22828740  0.66215012  0.07205254    -0.15100
C1734       C  0.20786419  0.64171026  0.08085009    -0.08400
C1735       C  0.24881103  0.60070947  0.13761130     0.05100
C1736       C  0.26424650  0.57685133  0.12814482    -0.09500
C1737       C  0.27156330  0.55483043  0.14701770     0.00100
C1738       C  0.26373307  0.55668123  0.17637210     0.00000
C1739       C  0.24785155  0.58059562  0.18565936    -0.13100
C1740       C  0.24031952  0.60247165  0.16652714     0.00400
C1741       C  0.28644392  0.53035912  0.13526197     0.39700
C1742       C  0.22402302  0.62661656  0.17692312     0.36300
C1743       C  0.19230157  0.60151376  0.11060173     0.36100
C1744       C  0.27705373  0.68375428  0.07919445     0.36800
N1745       N  0.29831771  0.51075054  0.12579475    -0.44000
N1746       N  0.21090286  0.64599888  0.18511006    -0.44400
N1747       N  0.29464190  0.70031074  0.07350876    -0.41800
N1748       N  0.17501814  0.58489806  0.11696672    -0.43200
H1749       H  0.18699379  0.64078140  0.07056063     0.13000
H1750       H  0.28195768  0.64371993  0.11868076     0.09400
H1751       H  0.27028929  0.57528499  0.10572427     0.10500
H1752       H  0.24168357  0.58248168  0.20800341     0.16300
C1753       C  0.25629469  0.65001772  0.90659241    -0.01900
C1754       C  0.23939515  0.62564225  0.90030924     0.06700
C1755       C  0.21553530  0.61954363  0.91745933    -0.07800
C1756       C  0.20827144  0.63725401  0.94055084     0.04200
C1757       C  0.22487107  0.66203160  0.94659595    -0.15100
C1758       C  0.24890073  0.66799452  0.92953460    -0.08400
C1759       C  0.24794294  0.60464947  0.87792393     0.05100
C1760       C  0.27400127  0.59025637  0.88140453    -0.09500
C1761       C  0.28305926  0.56977742  0.86156798     0.00100
C1762       C  0.26573398  0.56314116  0.83742707     0.00000
C1763       C  0.23925166  0.57714502  0.83423426    -0.13100
C1764       C  0.23030232  0.59785758  0.85420176     0.00400
C1765       C  0.30975543  0.55519935  0.86740993     0.39700
C1766       C  0.20331171  0.61227423  0.84960474     0.36300
C1767       C  0.28127778  0.65699891  0.88971016     0.36100
C1768       C  0.18466060  0.62848443  0.95860900     0.36800
N1769       N  0.33115650  0.54361268  0.87221635    -0.44000
N1770       N  0.18167842  0.62382686  0.84586914    -0.44400
N1771       N  0.16587872  0.62136387  0.97317767    -0.41800
N1772       N  0.30138625  0.66241773  0.87622214    -0.43200
H1773       H  0.26177037  0.68690669  0.93394133     0.13000
H1774       H  0.20306041  0.60030853  0.91331985     0.09400
H1775       H  0.28723030  0.59484340  0.90004287     0.10500
H1776       H  0.22572303  0.57219898  0.81593183     0.16300
C1777       C  0.09819047  0.71201593  0.90782864    -0.01900
C1778       C  0.10342477  0.73319724  0.88698492     0.06700
C1779       C  0.12359024  0.75470880  0.89274429    -0.07800
C1780       C  0.13788029  0.75599468  0.91908860     0.04200
C1781       C  0.13175319  0.73547851  0.94065530    -0.15100
C1782       C  0.11232168  0.71326917  0.93429179    -0.08400
C1783       C  0.08461457  0.73639973  0.86152707     0.05100
C1784       C  0.05557659  0.74177384  0.86665571    -0.09500
C1785       C  0.03730524  0.75001014  0.84458958     0.00100
C1786       C  0.04781289  0.75222002  0.81618127     0.00000
C1787       C  0.07658619  0.74522215  0.81062907    -0.13100
C1788       C  0.09520293  0.73794373  0.83318794     0.00400
C1789       C  0.00837974  0.75785328  0.85247057     0.39700
C1790       C  0.12520738  0.73344830  0.82699978     0.36300
C1791       C  0.07799236  0.68908070  0.90267294     0.36100
C1792       C  0.15864741  0.77868249  0.92301117     0.36800
N1793       N  0.98559347  0.76466833  0.85954772    -0.44000
N1794       N  0.14931756  0.73014301  0.82206487    -0.44400
N1795       N  0.17527089  0.79687979  0.92604713    -0.41800
N1796       N  0.06172210  0.67078177  0.89853163    -0.43200
H1797       H  0.10776699  0.69695917  0.95017724     0.13000
H1798       H  0.12738807  0.77129849  0.87693090     0.09400
H1799       H  0.04749532  0.74129543  0.88847194     0.10500
H1800       H  0.08497060  0.74732479  0.78905738     0.16300
C1801       C  0.11859325  0.71668871  0.12572708    -0.01900
C1802       C  0.09915490  0.73925060  0.13039864     0.06700
C1803       C  0.09169910  0.75721736  0.10754591    -0.07800
C1804       C  0.10419770  0.75378778  0.08050895     0.04200
C1805       C  0.12462640  0.73185598  0.07601150    -0.15100
C1806       C  0.13090122  0.71300082  0.09864627    -0.08400
C1807       C  0.08784083  0.74607791  0.15926311     0.05100
C1808       C  0.09559242  0.77230425  0.17173897    -0.09500
C1809       C  0.08301935  0.78153450  0.19731838     0.00100
C1810       C  0.06190388  0.76438578  0.21071684     0.00000
C1811       C  0.05582389  0.73714151  0.19927949    -0.13100
C1812       C  0.06845244  0.72796009  0.17366203     0.00400
C1813       C  0.09183534  0.80890288  0.20890041     0.39700
C1814       C  0.05985846  0.70069076  0.16176463     0.36300
C1815       C  0.12754412  0.69815960  0.14876506     0.36100
C1816       C  0.09585159  0.77331515  0.05805819     0.36800
N1817       N  0.09899093  0.83082666  0.21808825    -0.44000
N1818       N  0.05306762  0.67873012  0.15239880    -0.44400
N1819       N  0.08921198  0.78900447  0.04009046    -0.41800
N1820       N  0.13465453  0.68329179  0.16724083    -0.43200
H1821       H  0.14666461  0.69616657  0.09568718     0.13000
H1822       H  0.07652289  0.77447253  0.11109783     0.09400
H1823       H  0.11102754  0.78599444  0.16095363     0.10500
H1824       H  0.03964834  0.72370563  0.20925119     0.16300
C1825       C  0.25160943  0.85239370  0.96068650    -0.01900
C1826       C  0.25913908  0.85035653  0.93156460     0.06700
C1827       C  0.26013347  0.82328459  0.91828954    -0.07800
C1828       C  0.25203724  0.79851748  0.93334755     0.04200
C1829       C  0.24228361  0.80101735  0.96183488    -0.15100
C1830       C  0.24327788  0.82789042  0.97548004    -0.08400
C1831       C  0.26176439  0.87666281  0.91410895     0.05100
C1832       C  0.28649337  0.89367270  0.91620066    -0.09500
C1833       C  0.28807235  0.92029438  0.90237337     0.00100
C1834       C  0.26418660  0.93053458  0.88650541     0.00000
C1835       C  0.23960069  0.91305376  0.88445057    -0.13100
C1836       C  0.23828810  0.88643771  0.89790689     0.00400
C1837       C  0.31450752  0.93628244  0.90489628     0.39700
C1838       C  0.21222767  0.86981078  0.89540868     0.36300
C1839       C  0.25031762  0.87968148  0.97530840     0.36100
C1840       C  0.25206228  0.77129027  0.91866199     0.36800
N1841       N  0.33578996  0.94895550  0.90688293    -0.44000
N1842       N  0.19134734  0.85651277  0.89335504    -0.44400
N1843       N  0.25215547  0.74938442  0.90700529    -0.41800
N1844       N  0.24922883  0.90151927  0.98703947    -0.43200
H1845       H  0.23635807  0.82996675  0.99758797     0.13000
H1846       H  0.26595383  0.82171965  0.89585013     0.09400
H1847       H  0.30445632  0.88623625  0.92894037     0.10500
H1848       H  0.22114318  0.92007438  0.87220876     0.16300
C1849       C  0.27005289  0.35591178  0.91364783    -0.01900
C1850       C  0.24968223  0.37478335  0.90169727     0.06700
C1851       C  0.22110261  0.37310902  0.91073575    -0.07800
C1852       C  0.21267288  0.35378716  0.93200952     0.04200
C1853       C  0.23316025  0.33535695  0.94481484    -0.15100
C1854       C  0.26167139  0.33634805  0.93491998    -0.08400
C1855       C  0.25746594  0.39697031  0.88018887     0.05100
C1856       C  0.24696857  0.39447169  0.85209018    -0.09500
C1857       C  0.25209860  0.41590072  0.83166451     0.00100
C1858       C  0.26797326  0.44070132  0.83932096     0.00000
C1859       C  0.27850379  0.44296822  0.86757066    -0.13100
C1860       C  0.27326141  0.42156691  0.88790999     0.00400
C1861       C  0.24124840  0.41142590  0.80298670     0.39700
C1862       C  0.28337284  0.42581135  0.91689030     0.36300
C1863       C  0.29959320  0.35622938  0.90434585     0.36100
C1864       C  0.18267137  0.35321842  0.93978010     0.36800
N1865       N  0.23253220  0.40778814  0.78001594    -0.44000
N1866       N  0.29140098  0.42922741  0.94013795    -0.44400
N1867       N  0.15859858  0.35294515  0.94588063    -0.41800
N1868       N  0.32327972  0.35648142  0.89689453    -0.43200
H1869       H  0.27762955  0.32229706  0.94430092     0.13000
H1870       H  0.20530553  0.38736815  0.90135398     0.09400
H1871       H  0.23460052  0.37566188  0.84613116     0.10500
H1872       H  0.29057182  0.46179922  0.87403495     0.16300
C1873       C  0.21973741  0.36132894  0.11664645    -0.01900
C1874       C  0.24762193  0.37269394  0.11916202     0.06700
C1875       C  0.26884678  0.36401981  0.09968133    -0.07800
C1876       C  0.26220785  0.34550376  0.07686502     0.04200
C1877       C  0.23353326  0.33607196  0.07281790    -0.15100
C1878       C  0.21279280  0.34368552  0.09341895    -0.08400
C1879       C  0.25476761  0.39429452  0.14145856     0.05100
C1880       C  0.27532854  0.38775067  0.16241747    -0.09500
C1881       C  0.28270923  0.40781957  0.18357412     0.00100
C1882       C  0.26955828  0.43500553  0.18372605     0.00000
C1883       C  0.24865413  0.44134674  0.16308293    -0.13100
C1884       C  0.24135939  0.42139045  0.14189191     0.00400
C1885       C  0.30274131  0.39956859  0.20565505     0.39700
C1886       C  0.22085423  0.42960704  0.12018850     0.36300
C1887       C  0.19804798  0.36704050  0.13800700     0.36100
C1888       C  0.28530841  0.33674872  0.05818660     0.36800
N1889       N  0.31843380  0.39268160  0.22357918    -0.44000
N1890       N  0.20435777  0.43611201  0.10283781    -0.44400
N1891       N  0.30392938  0.32949087  0.04346292    -0.41800
N1892       N  0.18081639  0.37158281  0.15527299    -0.43200
H1893       H  0.19106799  0.33572841  0.09158600     0.13000
H1894       H  0.29051360  0.37208547  0.10206922     0.09400
H1895       H  0.28541515  0.36684576  0.16236661     0.10500
H1896       H  0.23878470  0.46236082  0.16285716     0.16300
C1897       C  0.11617569  0.28856096  0.12162622    -0.01900
C1898       C  0.10099733  0.26354549  0.12927977     0.06700
C1899       C  0.09889086  0.24103721  0.10936335    -0.07800
C1900       C  0.11331429  0.24216344  0.08314990     0.04200
C1901       C  0.12941200  0.26668374  0.07586669    -0.15100
C1902       C  0.12995819  0.29009654  0.09487195    -0.08400
C1903       C  0.08791916  0.25934705  0.15810886     0.05100
C1904       C  0.06559154  0.27733226  0.16734946    -0.09500
C1905       C  0.04960034  0.27064971  0.19196422     0.00100
C1906       C  0.05555795  0.24533830  0.20724951     0.00000
C1907       C  0.07900496  0.22845555  0.19911417    -0.13100
C1908       C  0.09548218  0.23552356  0.17510560     0.00400
C1909       C  0.02629294  0.28922346  0.20019307     0.39700
C1910       C  0.11966227  0.21758424  0.16786781     0.36300
C1911       C  0.11947480  0.31207999  0.14148841     0.36100
C1912       C  0.11168982  0.21753345  0.06442475     0.36800
N1913       N  0.00789841  0.30447353  0.20681753    -0.44000
N1914       N  0.13908762  0.20331643  0.16200599    -0.44400
N1915       N  0.11048577  0.19760497  0.04967564    -0.41800
N1916       N  0.12218839  0.33090798  0.15744727    -0.43200
H1917       H  0.14249120  0.30881741  0.08957059     0.13000
H1918       H  0.08674447  0.22205959  0.11478998     0.09400
H1919       H  0.05975712  0.29577768  0.15460254     0.10500
H1920       H  0.08376481  0.20907417  0.21093508     0.16300
C1921       C  0.06649137  0.25948813  0.85244931    -0.01900
C1922       C  0.08770158  0.24215223  0.86508558     0.06700
C1923       C  0.09500891  0.21609122  0.85197477    -0.07800
C1924       C  0.08102931  0.20679844  0.82695854     0.04200
C1925       C  0.05906599  0.22369368  0.81474574    -0.15100
C1926       C  0.05250579  0.25025726  0.82745985    -0.08400
C1927       C  0.10191132  0.25028551  0.89247047     0.05100
C1928       C  0.09405898  0.23597994  0.91762025    -0.09500
C1929       C  0.10787924  0.24182355  0.94368967     0.00100
C1930       C  0.13027700  0.26232704  0.94488808     0.00000
C1931       C  0.13740229  0.27732208  0.91976058    -0.13100
C1932       C  0.12351758  0.27140061  0.89369524     0.00400
C1933       C  0.09829343  0.22670258  0.96886355     0.39700
C1934       C  0.13250904  0.28637300  0.86821387     0.36300
C1935       C  0.05790733  0.28623718  0.86542440     0.36100
C1936       C  0.08997841  0.18014287  0.81403500     0.36800
N1937       N  0.09043647  0.21456775  0.98896836    -0.44000
N1938       N  0.13965227  0.29829041  0.84770974    -0.44400
N1939       N  0.09729685  0.15886654  0.80360147    -0.41800
N1940       N  0.05100137  0.30767207  0.87581476    -0.43200
H1941       H  0.03544235  0.26334249  0.81859935     0.13000
H1942       H  0.11159252  0.20285671  0.86149411     0.09400
H1943       H  0.07712399  0.21996089  0.91679508     0.10500
H1944       H  0.15472758  0.29292018  0.92017561     0.16300
C1945       C  0.23639611  0.10085178  0.90771400    -0.01900
C1946       C  0.26011490  0.11842214  0.91424131     0.06700
C1947       C  0.28788497  0.10903549  0.90768466    -0.07800
C1948       C  0.29226258  0.08244734  0.89439279     0.04200
C1949       C  0.26837590  0.06508217  0.88710545    -0.15100
C1950       C  0.24067072  0.07456871  0.89430014    -0.08400
C1951       C  0.25604771  0.14533103  0.93033826     0.05100
C1952       C  0.24536276  0.14323871  0.95820650    -0.09500
C1953       C  0.23670915  0.16751954  0.97310908     0.00100
C1954       C  0.23959457  0.19476453  0.96037547     0.00000
C1955       C  0.25201148  0.19718455  0.93312883    -0.13100
C1956       C  0.25997401  0.17251754  0.91782922     0.00400
C1957       C  0.22422039  0.16343903  0.00113125     0.39700
C1958       C  0.27052263  0.17539448  0.88890763     0.36300
C1959       C  0.20734883  0.10940551  0.91441609     0.36100
C1960       C  0.32143098  0.07324103  0.88967811     0.36800
N1961       N  0.21417428  0.15918211  0.02339621    -0.44000
N1962       N  0.27889872  0.17764062  0.86567522    -0.44400
N1963       N  0.34489125  0.06590060  0.88626450    -0.41800
N1964       N  0.18409753  0.11613186  0.91992783    -0.43200
H1965       H  0.22201331  0.06172837  0.88890519     0.13000
H1966       H  0.30615063  0.12223128  0.91355699     0.09400
H1967       H  0.24255754  0.12228927  0.96784321     0.10500
H1968       H  0.25426397  0.21811572  0.92336985     0.16300
C1969       C  0.63391649  0.90154901  0.21777854    -0.01900
C1970       C  0.63564199  0.89087728  0.24602859     0.06700
C1971       C  0.65759190  0.90108824  0.26407882    -0.07800
C1972       C  0.67655557  0.92262293  0.25502405     0.04200
C1973       C  0.67381374  0.93438315  0.22721094    -0.15100
C1974       C  0.65286637  0.92295831  0.20869439    -0.08400
C1975       C  0.61401410  0.87013171  0.25740747     0.05100
C1976       C  0.60934574  0.84400740  0.24309333    -0.09500
C1977       C  0.58753758  0.82517615  0.25177095     0.00100
C1978       C  0.57040633  0.83191547  0.27587453     0.00000
C1979       C  0.57587916  0.85748116  0.29086736    -0.13100
C1980       C  0.59709543  0.87666630  0.28169588     0.00400
C1981       C  0.58343001  0.79904497  0.23566033     0.39700
C1982       C  0.60002592  0.90358738  0.29673745     0.36300
C1983       C  0.61215884  0.89180895  0.19794165     0.36100
C1984       C  0.69883606  0.93175290  0.27458511     0.36800
N1985       N  0.58012477  0.77816996  0.22263260    -0.44000
N1986       N  0.60237281  0.92517472  0.30876073    -0.44400
N1987       N  0.71672793  0.93895596  0.29027179    -0.41800
N1988       N  0.59487862  0.88392020  0.18191195    -0.43200
H1989       H  0.65057178  0.93144360  0.18718095     0.13000
H1990       H  0.65966660  0.89242720  0.28553973     0.09400
H1991       H  0.62251311  0.83852080  0.22470421     0.10500
H1992       H  0.56272471  0.86308675  0.30924164     0.16300
C1993       C  0.65263152  0.10752152  0.24273426    -0.01900
C1994       C  0.62347211  0.10438145  0.23532878     0.06700
C1995       C  0.61438964  0.07930410  0.22151099    -0.07800
C1996       C  0.63368651  0.05714634  0.21551402     0.04200
C1997       C  0.66301311  0.05987586  0.22339736    -0.15100
C1998       C  0.67209852  0.08536861  0.23680589    -0.08400
C1999       C  0.60144030  0.12528063  0.24488765     0.05100
C2000       C  0.59857396  0.15177057  0.23107475    -0.09500
C2001       C  0.57776487  0.17168732  0.24002868     0.00100
C2002       C  0.55929004  0.16503847  0.26326807     0.00000
C2003       C  0.56238838  0.13827283  0.27674758    -0.13100
C2004       C  0.58316633  0.11866221  0.26791113     0.00400
C2005       C  0.57635283  0.19875465  0.22524288     0.39700
C2006       C  0.58587938  0.09203694  0.28333364     0.36300
C2007       C  0.66276212  0.13291961  0.25727575     0.36100
C2008       C  0.62229293  0.03147800  0.20237043     0.36800
N2009       N  0.57526727  0.22046039  0.21339745    -0.44000
N2010       N  0.58820420  0.07071493  0.29566653    -0.44400
N2011       N  0.61310832  0.01093625  0.19185503    -0.41800
N2012       N  0.67073043  0.15334203  0.26893850    -0.43200
H2013       H  0.69448076  0.08805325  0.24267524     0.13000
H2014       H  0.59185565  0.07671721  0.21615332     0.09400
H2015       H  0.61268656  0.15689648  0.21333748     0.10500
H2016       H  0.54869737  0.13254491  0.29462543     0.16300
C2017       C  0.72399201  0.11845459  0.12383329    -0.01900
C2018       C  0.74501830  0.12273061  0.10262433     0.06700
C2019       C  0.76041817  0.09929334  0.09198359    -0.07800
C2020       C  0.75590212  0.07181345  0.10285402     0.04200
C2021       C  0.73546317  0.06746999  0.12482663    -0.15100
C2022       C  0.71922983  0.09090599  0.13463265    -0.08400
C2023       C  0.75117230  0.15127392  0.09049704     0.05100
C2024       C  0.77364983  0.16767650  0.10207750    -0.09500
C2025       C  0.78314756  0.19256454  0.08824315     0.00100
C2026       C  0.76971431  0.20141660  0.06260289     0.00000
C2027       C  0.74613556  0.18575950  0.05207686    -0.13100
C2028       C  0.73710758  0.16063956  0.06555359     0.00400
C2029       C  0.80686323  0.20835765  0.10051840     0.39700
C2030       C  0.71467704  0.14373656  0.05238757     0.36300
C2031       C  0.70771341  0.14208493  0.13536931     0.36100
C2032       C  0.77255882  0.04855543  0.09102594     0.36800
N2033       N  0.82586157  0.22101247  0.11036408    -0.44000
N2034       N  0.69688852  0.12999365  0.04178331    -0.44400
N2035       N  0.78594516  0.02993801  0.08157530    -0.41800
N2036       N  0.69466490  0.16097017  0.14475374    -0.43200
H2037       H  0.70375163  0.08798051  0.15174844     0.13000
H2038       H  0.77626680  0.10259565  0.07526967     0.09400
H2039       H  0.78449923  0.16038071  0.12126898     0.10500
H2040       H  0.73591621  0.19208505  0.03218936     0.16300
C2041       C  0.72380950  0.88957876  0.11080956    -0.01900
C2042       C  0.75011025  0.88028266  0.09910629     0.06700
C2043       C  0.77361884  0.89916892  0.09893793    -0.07800
C2044       C  0.77198676  0.92598630  0.11225710     0.04200
C2045       C  0.74606295  0.93475597  0.12518832    -0.15100
C2046       C  0.72191565  0.91675505  0.12342698    -0.08400
C2047       C  0.75419302  0.85054022  0.08837692     0.05100
C2048       C  0.73712120  0.84021186  0.06572816    -0.09500
C2049       C  0.74234594  0.81323378  0.05360238     0.00100
C2050       C  0.76509489  0.79634570  0.06406461     0.00000
C2051       C  0.78126716  0.80604267  0.08744888    -0.13100
C2052       C  0.77587211  0.83276896  0.09981297     0.00400
C2053       C  0.72567519  0.80430727  0.02900075     0.39700
C2054       C  0.79349056  0.84183518  0.12367302     0.36300
C2055       C  0.69904412  0.87098593  0.11176198     0.36100
C2056       C  0.79727936  0.94390519  0.11260391     0.36800
N2057       N  0.71232802  0.79712361  0.00930436    -0.44000
N2058       N  0.80767658  0.84923924  0.14268531    -0.44400
N2059       N  0.81756680  0.95823079  0.11303477    -0.41800
N2060       N  0.67925576  0.85600032  0.11247796    -0.43200
H2061       H  0.70189557  0.92326971  0.13337408     0.13000
H2062       H  0.79368844  0.89246785  0.08923240     0.09400
H2063       H  0.72054584  0.85373623  0.05669995     0.10500
H2064       H  0.79920725  0.79334642  0.09503788     0.16300
C2065       C  0.82476703  0.90792005  0.25695245    -0.01900
C2066       C  0.85325997  0.91821408  0.25677097     0.06700
C2067       C  0.85853941  0.94677031  0.24963741    -0.07800
C2068       C  0.83620000  0.96475438  0.24118888     0.04200
C2069       C  0.80769098  0.95422987  0.23992638    -0.15100
C2070       C  0.80212380  0.92607031  0.24884121    -0.08400
C2071       C  0.87843015  0.89923843  0.26063155     0.05100
C2072       C  0.88929494  0.88518286  0.23646579    -0.09500
C2073       C  0.91525710  0.87021427  0.23763545     0.00100
C2074       C  0.93101479  0.86891815  0.26370777     0.00000
C2075       C  0.91964594  0.88275326  0.28807615    -0.13100
C2076       C  0.89368820  0.89793087  0.28664568     0.00400
C2077       C  0.92534075  0.85728853  0.21134112     0.39700
C2078       C  0.88315878  0.91227119  0.31197481     0.36300
C2079       C  0.81848508  0.87864531  0.26446062     0.36100
C2080       C  0.84338998  0.99381177  0.23342060     0.36800
N2081       N  0.93347199  0.84698456  0.19027211    -0.44000
N2082       N  0.87460441  0.92379153  0.33222805    -0.44400
N2083       N  0.84943328  0.01696831  0.22706690    -0.41800
N2084       N  0.81342141  0.85517241  0.27051067    -0.43200
H2085       H  0.78037275  0.91781182  0.24801534     0.13000
H2086       H  0.88043934  0.95471412  0.24957778     0.09400
H2087       H  0.87778667  0.88668140  0.21628450     0.10500
H2088       H  0.93102846  0.88179712  0.30833683     0.16300
C2089       C  0.83694286  0.10238847  0.21860290    -0.01900
C2090       C  0.84902921  0.09897717  0.24613335     0.06700
C2091       C  0.83450692  0.08230056  0.26636521    -0.07800
C2092       C  0.80991002  0.06675422  0.25880714     0.04200
C2093       C  0.79954055  0.06755765  0.23019790    -0.15100
C2094       C  0.81257754  0.08656205  0.21080616    -0.08400
C2095       C  0.87780551  0.11058973  0.25370033     0.05100
C2096       C  0.88047394  0.12987573  0.27660328    -0.09500
C2097       C  0.90733754  0.14094253  0.28454077     0.00100
C2098       C  0.93225511  0.13319953  0.26889344     0.00000
C2099       C  0.92957858  0.11277625  0.24684356    -0.13100
C2100       C  0.90282403  0.10111335  0.23955773     0.00400
C2101       C  0.90823996  0.16045166  0.30852844     0.39700
C2102       C  0.90164237  0.07881894  0.21807626     0.36300
C2103       C  0.84939402  0.12154628  0.19779339     0.36100
C2104       C  0.79734959  0.04860951  0.28044573     0.36800
N2105       N  0.90840298  0.17561161  0.32817034    -0.44000
N2106       N  0.90060799  0.06079505  0.20102981    -0.44400
N2107       N  0.78732764  0.03405826  0.29780769    -0.41800
N2108       N  0.85902671  0.13689347  0.18090723    -0.43200
H2109       H  0.80446869  0.08820262  0.18906754     0.13000
H2110       H  0.84336684  0.08015080  0.28777520     0.09400
H2111       H  0.86139771  0.13645128  0.28822511     0.10500
H2112       H  0.94847288  0.10602486  0.23503653     0.16300
C2113       C  0.40153500  0.84759256  0.24194211    -0.01900
C2114       C  0.40078230  0.87612065  0.25187886     0.06700
C2115       C  0.42243965  0.88574251  0.27037583    -0.07800
C2116       C  0.44457439  0.86755629  0.27930415     0.04200
C2117       C  0.44544995  0.83869583  0.26965582    -0.15100
C2118       C  0.42372181  0.82921328  0.25079617    -0.08400
C2119       C  0.37822491  0.89684041  0.24287432     0.05100
C2120       C  0.35109800  0.89613338  0.25591549    -0.09500
C2121       C  0.33039132  0.91727177  0.25011942     0.00100
C2122       C  0.33658490  0.93960246  0.23048958     0.00000
C2123       C  0.36374460  0.93969630  0.21714124    -0.13100
C2124       C  0.38443182  0.91887652  0.22331714     0.00400
C2125       C  0.30330302  0.91554786  0.26501032     0.39700
C2126       C  0.41214841  0.92078488  0.20960672     0.36300
C2127       C  0.38005646  0.83688665  0.22231538     0.36100
C2128       C  0.46623989  0.87958187  0.29796637     0.36800
N2129       N  0.28167132  0.91418071  0.27711616    -0.44000
N2130       N  0.43440248  0.92237836  0.19872250    -0.44400
N2131       N  0.48352928  0.88931989  0.31294306    -0.41800
N2132       N  0.36291320  0.82824967  0.20651972    -0.43200
H2133       H  0.42384315  0.80726983  0.24311462     0.13000
H2134       H  0.42206117  0.90778378  0.27783840     0.09400
H2135       H  0.34636347  0.87938063  0.27128216     0.10500
H2136       H  0.36920687  0.95643589  0.20201899     0.16300
C2137       C  0.37218152  0.09690920  0.22093373    -0.01900
C2138       C  0.37059238  0.10853595  0.24876371     0.06700
C2139       C  0.34885265  0.09933276  0.26739410    -0.07800
C2140       C  0.32934846  0.07804374  0.25898617     0.04200
C2141       C  0.33180637  0.06532644  0.23153989    -0.15100
C2142       C  0.35294367  0.07551620  0.21260237    -0.08400
C2143       C  0.39237768  0.12921391  0.25917479     0.05100
C2144       C  0.39466219  0.15608386  0.24603704    -0.09500
C2145       C  0.41646983  0.17522256  0.25387724     0.00100
C2146       C  0.43589156  0.16780850  0.27592875     0.00000
C2147       C  0.43311117  0.14112914  0.28944192    -0.13100
C2148       C  0.41194468  0.12167298  0.28091396     0.00400
C2149       C  0.41833711  0.20220415  0.23897228     0.39700
C2150       C  0.41184702  0.09344167  0.29345791     0.36300
C2151       C  0.39405761  0.10581451  0.20091412     0.36100
C2152       C  0.30667582  0.07034801  0.27860492     0.36800
N2153       N  0.41991909  0.22371383  0.22683251    -0.44000
N2154       N  0.41189442  0.07071124  0.30324595    -0.44400
N2155       N  0.28838306  0.06430194  0.29423746    -0.41800
N2156       N  0.41153736  0.11307156  0.18488366    -0.43200
H2157       H  0.35500454  0.06624256  0.19134095     0.13000
H2158       H  0.34729534  0.10870968  0.28865947     0.09400
H2159       H  0.37969132  0.16183164  0.22916563     0.10500
H2160       H  0.44829633  0.13495553  0.30597017     0.16300
C2161       C  0.26652808  0.83949339  0.07014134    -0.01900
C2162       C  0.25027082  0.85198432  0.09226640     0.06700
C2163       C  0.22647026  0.83731337  0.10329889    -0.07800
C2164       C  0.21787479  0.81098269  0.09164168     0.04200
C2165       C  0.23344403  0.79890151  0.06859108    -0.15100
C2166       C  0.25822100  0.81302815  0.05870315    -0.08400
C2167       C  0.25731577  0.88062184  0.10392998     0.05100
C2168       C  0.24379238  0.90475901  0.09233044    -0.09500
C2169       C  0.24804269  0.93194712  0.10441984     0.00100
C2170       C  0.26618598  0.93514622  0.12850850     0.00000
C2171       C  0.28072060  0.91104703  0.13915885    -0.13100
C2172       C  0.27627806  0.88390732  0.12718705     0.00400
C2173       C  0.23376879  0.95617105  0.09162752     0.39700
C2174       C  0.29054139  0.85953789  0.13970084     0.36300
C2175       C  0.29101868  0.85403513  0.05801660     0.36100
C2176       C  0.19288018  0.79703809  0.10349703     0.36800
N2177       N  0.22244249  0.97566002  0.08138730    -0.44000
N2178       N  0.30189168  0.83994213  0.14969953    -0.44400
N2179       N  0.17285009  0.78586240  0.11298067    -0.41800
N2180       N  0.31060026  0.86567813  0.04818644    -0.43200
H2181       H  0.27015923  0.80430951  0.04073680     0.13000
H2182       H  0.21421251  0.84681756  0.12064560     0.09400
H2183       H  0.22946622  0.90222302  0.07414706     0.10500
H2184       H  0.29454957  0.91315250  0.15778282     0.16300
C2185       C  0.28490050  0.11594870  0.12380865    -0.01900
C2186       C  0.25977965  0.12626492  0.11050702     0.06700
C2187       C  0.23614748  0.10781448  0.10729740    -0.07800
C2188       C  0.23673048  0.07994193  0.11820432     0.04200
C2189       C  0.26149156  0.06988666  0.13238530    -0.15100
C2190       C  0.28562290  0.08790228  0.13448620    -0.08400
C2191       C  0.25750152  0.15595202  0.09922824     0.05100
C2192       C  0.27509298  0.16433699  0.07629356    -0.09500
C2193       C  0.26978887  0.18988789  0.06152136     0.00100
C2194       C  0.24657197  0.20741561  0.06975959     0.00000
C2195       C  0.23044124  0.20016456  0.09400234    -0.13100
C2196       C  0.23580214  0.17475209  0.10885522     0.00400
C2197       C  0.28635389  0.19606424  0.03611454     0.39700
C2198       C  0.21782953  0.16775504  0.13305080     0.36300
C2199       C  0.30962809  0.13416718  0.12792762     0.36100
C2200       C  0.21183105  0.06192601  0.11414538     0.36800
N2201       N  0.29951881  0.20094131  0.01567330    -0.44000
N2202       N  0.20335799  0.16218063  0.15240037    -0.44400
N2203       N  0.19192425  0.04743798  0.11082091    -0.41800
N2204       N  0.32940669  0.14883468  0.13122894    -0.43200
H2205       H  0.30464780  0.08050505  0.14565834     0.13000
H2206       H  0.21703425  0.11535289  0.09636977     0.09400
H2207       H  0.29171762  0.14997199  0.06868211     0.10500
H2208       H  0.21231400  0.21340701  0.10012225     0.16300
C2209       C  0.16271451  0.93091577  0.27169020    -0.01900
C2210       C  0.14763149  0.91260046  0.25291828     0.06700
C2211       C  0.15879700  0.90710323  0.22558570    -0.07800
C2212       C  0.18392964  0.92057435  0.21618174     0.04200
C2213       C  0.19817720  0.94050147  0.23422728    -0.15100
C2214       C  0.18773666  0.94467677  0.26226882    -0.08400
C2215       C  0.11947383  0.89989683  0.26061500     0.05100
C2216       C  0.09468524  0.91021560  0.24705091    -0.09500
C2217       C  0.06789556  0.89739956  0.25175577     0.00100
C2218       C  0.06558994  0.87392183  0.27061042     0.00000
C2219       C  0.09036088  0.86419392  0.28481885    -0.13100
C2220       C  0.11719635  0.87676694  0.27976236     0.00400
C2221       C  0.04317369  0.90872280  0.23698175     0.39700
C2222       C  0.14232496  0.86456403  0.29307726     0.36300
C2223       C  0.15223069  0.93685950  0.30021189     0.36100
C2224       C  0.19434869  0.91361608  0.18784565     0.36800
N2225       N  0.02332676  0.91772809  0.22513184    -0.44000
N2226       N  0.16252900  0.85473515  0.30358865    -0.44400
N2227       N  0.20271504  0.90801162  0.16515954    -0.41800
N2228       N  0.14390796  0.94153808  0.32311859    -0.43200
H2229       H  0.19828178  0.95984278  0.27648046     0.13000
H2230       H  0.14747732  0.89252098  0.21132786     0.09400
H2231       H  0.09641352  0.92806037  0.23228716     0.10500
H2232       H  0.08904204  0.84568347  0.29876915     0.16300
C2233       C  0.14710301  0.05467381  0.25750384    -0.01900
C2234       C  0.14862941  0.08483131  0.25867674     0.06700
C2235       C  0.17540838  0.09828896  0.25455700    -0.07800
C2236       C  0.19989599  0.08224908  0.24729799     0.04200
C2237       C  0.19756096  0.05235476  0.24396478    -0.15100
C2238       C  0.17138119  0.03884826  0.25004195    -0.08400
C2239       C  0.12202763  0.10238243  0.26133336     0.05100
C2240       C  0.10442386  0.09937479  0.28554374    -0.09500
C2241       C  0.07782963  0.11335626  0.28739938     0.00100
C2242       C  0.06850334  0.13137677  0.26480053     0.00000
C2243       C  0.08651208  0.13455301  0.24075612    -0.13100
C2244       C  0.11282375  0.12022439  0.23879829     0.00400
C2245       C  0.06062693  0.10824891  0.31259898     0.39700
C2246       C  0.12949882  0.12335922  0.21289265     0.36300
C2247       C  0.12049523  0.03944971  0.26201713     0.36100
C2248       C  0.22650472  0.09698113  0.24144600     0.36800
N2249       N  0.04685405  0.10396831  0.33277614    -0.44000
N2250       N  0.14288715  0.12582182  0.19215753    -0.44400
N2251       N  0.24785400  0.10877500  0.23677876    -0.41800
N2252       N  0.09926501  0.02713463  0.26577319    -0.43200
H2253       H  0.16960788  0.01576679  0.24774122     0.13000
H2254       H  0.17686607  0.12142816  0.25580962     0.09400
H2255       H  0.11129418  0.08555773  0.30287640     0.10500
H2256       H  0.08003578  0.14822491  0.22316509     0.16300
loop_ 
_geom_bond_atom_site_label_1 
_geom_bond_atom_site_label_2 
_geom_bond_distance 
_geom_bond_site_symmetry_2 
_ccdc_geom_bond_type 
O1           C16   1.263       .  A
O1           Al9   1.918   1_545  S
C2           O12   1.258       .  A
C2            O3   1.263       .  A
C2         C2170   1.479       .  S
O3           Al5   1.922       .  S
O4            C6   1.261       .  A
O4           Al5   1.887       .  S
Al5          O13   1.886   1_565  S
Al5          O15   1.901   1_565  S
Al5          O14   1.778   1_565  S
C6           O19   1.267       .  A
C6         C2213   1.488       .  S
O7           C17   1.264       .  A
O7           Al9   1.917       .  S
O8           C21   1.258       .  A
O8          Al18   1.873       .  S
Al9          O22   1.928   1_565  S
Al9          O19   1.931       .  S
Al9          O14   1.782   1_565  S
O10          C17   1.263       .  A
O10         Al18   1.914   1_565  S
O11          C20   1.265       .  A
O11         Al18   1.928       .  S
O12         Al18   1.886   1_565  S
O13          C20   1.259       .  A
O14         Al18   1.780       .  S
O15          C16   1.261       .  A
C16        C2237   1.474       .  S
C17        C2122   1.501       .  S
C20        C2189   1.481       .  S
C21          O22   1.266       .  A
C21        C2141   1.482       .  S
O23          C38   1.264       .  A
O23         Al31   1.921   1_565  S
C24          O34   1.260       .  A
C24          O25   1.261       .  A
C24        C2021   1.479       .  S
O25         Al27   1.907       .  S
O26          C28   1.262       .  A
O26         Al27   1.896       .  S
Al27         O35   1.889   1_545  S
Al27         O37   1.895   1_545  S
Al27         O36   1.780       .  S
C28          O41   1.265       .  A
C28        C2093   1.489       .  S
O29          C39   1.263       .  A
O29         Al31   1.915       .  S
O30          C43   1.263       .  A
O30         Al40   1.892       .  S
Al31         O44   1.930   1_545  S
Al31         O41   1.919       .  S
Al31         O36   1.779       .  S
O32          C39   1.259       .  A
O32         Al40   1.901   1_545  S
O33          C42   1.263       .  A
O33         Al40   1.920       .  S
O34         Al40   1.898   1_545  S
O35          C42   1.260       .  A
O36         Al40   1.782   1_545  S
O37          C38   1.259       .  A
C38        C2069   1.481       .  S
C39        C1997   1.491       .  S
C42        C2045   1.478       .  S
C43          O44   1.267       .  A
C43        C1973   1.490       .  S
O45          C60   1.261       .  A
O45         Al53   1.910       .  S
C46          O56   1.262       .  A
C46          O47   1.264       .  A
C46        C1930   1.488       .  S
O47         Al49   1.917   1_556  S
O48          C50   1.256       .  A
O48         Al49   1.875   1_556  S
Al49         O57   1.874       .  S
Al49         O59   1.885       .  S
Al49         O58   1.779       .  S
C50          O63   1.261       .  A
C50        C1954   1.465       .  S
O51          C61   1.263       .  A
O51         Al53   1.915   1_556  S
O52          C65   1.261       .  A
O52         Al62   1.882       .  S
Al53         O66   1.926       .  S
Al53         O63   1.918   1_554  S
Al53         O58   1.796       .  S
O54          C61   1.260       .  A
O54         Al62   1.908   1_556  S
O55          C64   1.261       .  A
O55         Al62   1.927       .  S
O56         Al62   1.904   1_556  S
O57          C64   1.253       .  A
O58         Al62   1.785       .  S
O59          C60   1.258       .  A
C60        C2194   1.469       .  S
C61        C1853   1.492       .  S
C64        C1901   1.478       .  S
C65          O66   1.266       .  A
C65        C1877   1.489       .  S
O67          C82   1.264       .  A
O67         Al75   1.921   1_556  S
C68          O78   1.255       .  A
C68          O69   1.260       .  A
C68        C1805   1.482       .  S
O69         Al71   1.917       .  S
O70          C72   1.264       .  A
O70         Al71   1.889       .  S
Al71         O79   1.877   1_554  S
Al71         O81   1.892   1_554  S
Al71         O80   1.776       .  S
C72          O85   1.270       .  A
C72        C2165   1.481       .  S
O73          C83   1.261       .  A
O73         Al75   1.900       .  S
O74          C87   1.254       .  A
O74         Al84   1.863   1_556  S
Al75         O88   1.941   1_554  S
Al75         O85   1.935       .  S
Al75         O80   1.780       .  S
O76          C83   1.263       .  A
O76         Al84   1.907       .  S
O77          C86   1.268       .  A
O77         Al84   1.929   1_556  S
O78         Al84   1.882       .  S
O79          C86   1.259       .  A
O80         Al84   1.779       .  S
O81          C82   1.259       .  A
C82        C1829   1.478       .  S
C83        C1733   1.491       .  S
C86        C1781   1.488       .  S
C87          O88   1.268       .  A
C87        C1757   1.481       .  S
O89         C104   1.264       .  A
O89         Al97   1.918   1_655  S
C90         O100   1.260       .  A
C90          O91   1.265       .  A
C90        C1690   1.488       .  S
O91         Al93   1.922   1_455  S
O92          C94   1.262       .  A
O92         Al93   1.897   1_455  S
Al93        O101   1.892       .  S
Al93        O103   1.893       .  S
Al93        O102   1.775   1_655  S
C94         O107   1.266       .  A
C94        C1925   1.486       .  S
O95         C105   1.264       .  A
O95         Al97   1.925       .  S
O96         C109   1.261       .  A
O96        Al106   1.877   1_655  S
Al97        O110   1.931   1_455  S
Al97        O107   1.921       .  S
Al97        O102   1.785       .  S
O98         C105   1.258       .  A
O98        Al106   1.890       .  S
O99         C108   1.259       .  A
O99        Al106   1.923   1_655  S
O100       Al106   1.887       .  S
O101        C108   1.257       .  A
O102       Al106   1.787       .  S
O103        C104   1.259       .  A
C104       C1714   1.480       .  S
C105       C1642   1.493       .  S
C108       C1666   1.472       .  S
C109        O110   1.269       .  A
C109       C1613   1.480       .  S
O111        C126   1.260       .  A
O111       Al119   1.910   1_455  S
C112        O122   1.261       .  A
C112        O113   1.266       .  A
C112       C2098   1.489       .  S
O113       Al115   1.927       .  S
O114        C116   1.260       .  A
O114       Al115   1.883       .  S
Al115       O123   1.891   1_655  S
Al115       O125   1.900   1_655  S
Al115       O124   1.777   1_655  S
C116        O129   1.267       .  A
C116       C1589   1.485       .  S
O117        C127   1.261       .  A
O117       Al119   1.911       .  S
O118        C131   1.262       .  A
O118       Al128   1.880       .  S
Al119       O132   1.938   1_655  S
Al119       O129   1.929       .  S
Al119       O124   1.782   1_655  S
O120        C127   1.260       .  A
O120       Al128   1.910   1_655  S
O121        C130   1.264       .  A
O121       Al128   1.931       .  S
O122       Al128   1.900   1_655  S
O123        C130   1.259       .  A
O124       Al128   1.783       .  S
O125        C126   1.259       .  A
C126       C1906   1.473       .  S
C127       C1541   1.492       .  S
C130       C2242   1.496       .  S
C131        O132   1.270       .  A
C131       C1565   1.489       .  S
O133        C148   1.260       .  A
O133       Al141   1.904   1_655  S
C134        O144   1.256       .  A
C134        O135   1.261       .  A
C134       C2218   1.482       .  S
O135       Al137   1.923       .  S
O136        C138   1.261       .  A
O136       Al137   1.880       .  S
Al137       O145   1.877   1_455  S
Al137       O147   1.905   1_455  S
Al137       O146   1.773       .  S
C138        O151   1.269       .  A
C138       C1810   1.480       .  S
O139        C149   1.259       .  A
O139       Al141   1.887       .  S
O140        C153   1.257       .  A
O140       Al150   1.875       .  S
Al141       O154   1.929   1_455  S
Al141       O151   1.934       .  S
Al141       O146   1.780       .  S
O142        C149   1.263       .  A
O142       Al150   1.914   1_455  S
O143        C152   1.270       .  A
O143       Al150   1.942       .  S
O144       Al150   1.892   1_455  S
O145        C152   1.259       .  A
O146       Al150   1.776   1_455  S
O147        C148   1.260       .  A
C148       C1517   1.465       .  S
C149       C1474   1.479       .  S
C152       C2074   1.494       .  S
C153        O154   1.267       .  A
C153       C1493   1.482       .  S
O155        C170   1.264       .  A
O155       Al163   1.908       .  S
C156        O166   1.258       .  A
C156        O157   1.265       .  A
C156       C1421   1.489       .  S
O157       Al159   1.920   1_556  S
O158        C160   1.260       .  A
O158       Al159   1.885   1_556  S
Al159       O167   1.875       .  S
Al159       O169   1.889       .  S
Al159       O168   1.772       .  S
C160        O173   1.264       .  A
C160       C1450   1.475       .  S
O161        C171   1.260       .  A
O161       Al163   1.897   1_556  S
O162        C175   1.260       .  A
O162       Al172   1.876       .  S
Al163       O176   1.946       .  S
Al163       O173   1.929   1_554  S
Al163       O168   1.781       .  S
O164        C171   1.260       .  A
O164       Al172   1.905   1_556  S
O165        C174   1.263       .  A
O165       Al172   1.926       .  S
O166       Al172   1.887   1_556  S
O167        C174   1.256       .  A
O168       Al172   1.783       .  S
O169        C170   1.259       .  A
C170       C2050   1.463       .  S
C171       C1378   1.467       .  S
C174       C1522   1.485       .  S
C175        O176   1.270       .  A
C175       C1397   1.489       .  S
O177        C192   1.265       .  A
O177       Al185   1.924       .  S
C178        O188   1.257       .  A
C178        O179   1.261       .  A
C178       C1949   1.481       .  S
O179       Al181   1.903   1_545  S
O180        C182   1.264       .  A
O180       Al181   1.900   1_545  S
Al181       O189   1.884       .  S
Al181       O191   1.883       .  S
Al181       O190   1.772       .  S
C182        O195   1.265       .  A
C182       C1685   1.480       .  S
O183        C193   1.266       .  A
O183       Al185   1.921   1_545  S
O184        C197   1.258       .  A
O184       Al194   1.875       .  S
Al185       O198   1.921       .  S
Al185       O195   1.916   1_565  S
Al185       O190   1.780       .  S
O186        C193   1.261       .  A
O186       Al194   1.903   1_545  S
O187        C196   1.264       .  A
O187       Al194   1.927       .  S
O188       Al194   1.892   1_545  S
O189        C196   1.259       .  A
O190       Al194   1.779       .  S
O191        C192   1.258       .  A
C192       C1354   1.477       .  S
C193       C1301   1.498       .  S
C196       C1834   1.492       .  S
C197        O198   1.265       .  A
C197       C1330   1.480       .  S
O199        C214   1.265       .  A
O199       Al207   1.924   1_455  S
C200        O210   1.258       .  A
C200        O201   1.262       .  A
C200       C1277   1.488       .  S
O201       Al203   1.916       .  S
O202        C204   1.264       .  A
O202       Al203   1.896       .  S
Al203       O211   1.887   1_655  S
Al203       O213   1.888   1_655  S
Al203       O212   1.774       .  S
C204        O217   1.267       .  A
C204       C1426   1.485       .  S
O205        C215   1.263       .  A
O205       Al207   1.905       .  S
O206        C219   1.260       .  A
O206       Al216   1.887       .  S
Al207       O220   1.929   1_655  S
Al207       O217   1.926       .  S
Al207       O212   1.776       .  S
O208        C215   1.261       .  A
O208       Al216   1.908   1_655  S
O209        C218   1.266       .  A
O209       Al216   1.930       .  S
O210       Al216   1.898   1_655  S
O211        C218   1.259       .  A
O212       Al216   1.779   1_655  S
O213        C214   1.258       .  A
C214       C1786   1.478       .  S
C215       C1234   1.486       .  S
C218       C1349   1.481       .  S
C219        O220   1.267       .  A
C219       C1258   1.482       .  S
O221        C236   1.261       .  A
O221       Al229   1.904   1_556  S
C222        O232   1.259       .  A
C222        O223   1.263       .  A
C222       C1594   1.485       .  S
O223       Al225   1.916       .  S
O224        C226   1.262       .  A
O224       Al225   1.897       .  S
Al225       O233   1.884   1_554  S
Al225       O235   1.894   1_554  S
Al225       O234   1.774       .  S
C226        O239   1.265       .  A
C226       C2026   1.478       .  S
O227        C237   1.261       .  A
O227       Al229   1.902       .  S
O228        C241   1.259       .  A
O228       Al238   1.876   1_556  S
Al229       O242   1.921   1_554  S
Al229       O239   1.919       .  S
Al229       O234   1.779       .  S
O230        C237   1.262       .  A
O230       Al238   1.911       .  S
O231        C240   1.264       .  A
O231       Al238   1.939   1_556  S
O232       Al238   1.889       .  S
O233        C240   1.257       .  A
O234       Al238   1.783       .  S
O235        C236   1.260       .  A
C236       C1210   1.472       .  S
C237       C1162   1.480       .  S
C240       C1709   1.476       .  S
C241        O242   1.266       .  A
C241       C1181   1.472       .  S
O243        C258   1.264       .  A
O243       Al251   1.923   1_545  S
C244        O254   1.259       .  A
C244        O245   1.261       .  A
C244       C1445   1.489       .  S
O245       Al247   1.916       .  S
O246        C248   1.262       .  A
O246       Al247   1.889       .  S
Al247       O255   1.872   1_565  S
Al247       O257   1.892   1_565  S
Al247       O256   1.774   1_565  S
C248        O261   1.269       .  A
C248       C1282   1.485       .  S
O249        C259   1.263       .  A
O249       Al251   1.904       .  S
O250        C263   1.259       .  A
O250       Al260   1.888       .  S
Al251       O264   1.941   1_565  S
Al251       O261   1.937       .  S
Al251       O256   1.780   1_565  S
O252        C259   1.261       .  A
O252       Al260   1.904   1_565  S
O253        C262   1.265       .  A
O253       Al260   1.934       .  S
O254       Al260   1.905   1_565  S
O255        C262   1.256       .  A
O256       Al260   1.785       .  S
O257        C258   1.258       .  A
C258       C1661   1.479       .  S
C259       C1109   1.491       .  S
C262       C1205   1.471       .  S
C263        O264   1.270       .  A
C263       C1133   1.496       .  S
O265        C280   1.263       .  A
O265       Al273   1.927       .  S
C266        O276   1.257       .  A
C266        O267   1.259       .  A
C266       C1013   1.493       .  S
O267       Al269   1.909       .  S
O268        C270   1.262       .  A
O268       Al269   1.880       .  S
Al269       O277   1.873       .  S
Al269       O279   1.897       .  S
Al269       O278   1.778       .  S
C270        O283   1.268       .  A
C270       C1061   1.468       .  S
O271        C281   1.262       .  A
O271       Al273   1.908       .  S
O272        C285   1.259       .  A
O272       Al282   1.883       .  S
Al273       O286   1.911       .  S
Al273       O283   1.918       .  S
Al273       O278   1.780       .  S
O274        C281   1.262       .  A
O274       Al282   1.899       .  S
O275        C284   1.269       .  A
O275       Al282   1.933       .  S
O276       Al282   1.907       .  S
O277        C284   1.261       .  A
O278       Al282   1.778       .  S
O279        C280   1.256       .  A
C280       C1090   1.475       .  S
C281       C2002   1.494       .  S
C284       C1037   1.483       .  S
C285        O286   1.263       .  A
C285       C2146   1.477       .  S
O287        C302   1.267       .  A
O287       Al295   1.926       .  S
C288        O298   1.258       .  A
C288        O289   1.263       .  A
C288        C941   1.491       .  S
O289       Al291   1.915       .  S
O290        C292   1.263       .  A
O290       Al291   1.896       .  S
Al291       O299   1.893       .  S
Al291       O301   1.888       .  S
Al291       O300   1.775       .  S
C292        O305   1.263       .  A
C292        C965   1.480       .  S
O293        C303   1.263       .  A
O293       Al295   1.910       .  S
O294        C307   1.259       .  A
O294       Al304   1.888       .  S
Al295       O308   1.926       .  S
Al295       O305   1.915       .  S
Al295       O300   1.783       .  S
O296        C303   1.261       .  A
O296       Al304   1.906       .  S
O297        C306   1.264       .  A
O297       Al304   1.928       .  S
O298       Al304   1.899       .  S
O299        C306   1.260       .  A
O300       Al304   1.779       .  S
O301        C302   1.259       .  A
C302        C994   1.484       .  S
C303       C1738   1.490       .  S
C306       C1085   1.493       .  S
C307        O308   1.265       .  A
C307       C1882   1.473       .  S
O309        C324   1.263       .  A
O309       Al317   1.913       .  S
C310        O320   1.259       .  A
C310        O311   1.262       .  A
C310        C893   1.473       .  S
O311       Al313   1.918       .  S
O312        C314   1.262       .  A
O312       Al313   1.884       .  S
Al313       O321   1.886       .  S
Al313       O323   1.894       .  S
Al313       O322   1.774       .  S
C314        O327   1.267       .  A
C314        C917   1.484       .  S
O315        C325   1.262       .  A
O315       Al317   1.909       .  S
O316        C329   1.259       .  A
O316       Al326   1.883       .  S
Al317       O330   1.936       .  S
Al317       O327   1.925       .  S
Al317       O322   1.778       .  S
O318        C325   1.262       .  A
O318       Al326   1.911       .  S
O319        C328   1.267       .  A
O319       Al326   1.934       .  S
O320       Al326   1.899       .  S
O321        C328   1.259       .  A
O322       Al326   1.772       .  S
O323        C324   1.260       .  A
C324       C1042   1.479       .  S
C325       C1637   1.495       .  S
C328        C989   1.490       .  S
C329        O330   1.268       .  A
C329       C1570   1.474       .  S
O331        C346   1.261       .  A
O331       Al339   1.898       .  S
C332        O342   1.258       .  A
C332        O333   1.265       .  A
C332        C970   1.486       .  S
O333       Al335   1.918       .  S
O334        C336   1.261       .  A
O334       Al335   1.892       .  S
Al335       O343   1.893       .  S
Al335       O345   1.907       .  S
Al335       O344   1.770       .  S
C336        O349   1.267       .  A
C336        C850   1.480       .  S
O337        C347   1.260       .  A
O337       Al339   1.890       .  S
O338        C351   1.259       .  A
O338       Al348   1.881       .  S
Al339       O352   1.937       .  S
Al339       O349   1.932       .  S
Al339       O344   1.777       .  S
O340        C347   1.263       .  A
O340       Al348   1.913       .  S
O341        C350   1.265       .  A
O341       Al348   1.923       .  S
O342       Al348   1.890       .  S
O343        C350   1.260       .  A
O344       Al348   1.776       .  S
O345        C346   1.262       .  A
C346        C869   1.462       .  S
C347       C1469   1.475       .  S
C350        C821   1.493       .  S
C351        O352   1.268       .  A
C351       C1253   1.482       .  S
O353        C368   1.266       .  A
O353       Al361   1.927       .  S
C354        O364   1.256       .  A
C354        O355   1.260       .  A
C354        C773   1.487       .  S
O355       Al357   1.916       .  S
O356        C358   1.262       .  A
O356       Al357   1.883       .  S
Al357       O365   1.885       .  S
Al357       O367   1.898       .  S
Al357       O366   1.775       .  S
C358        O371   1.269       .  A
C358        C898   1.491       .  S
O359        C369   1.264       .  A
O359       Al361   1.907       .  S
O360        C373   1.256       .  A
O360       Al370   1.872       .  S
Al361       O374   1.939       .  S
Al361       O371   1.940       .  S
Al361       O366   1.781       .  S
O362        C369   1.265       .  A
O362       Al370   1.918       .  S
O363        C372   1.270       .  A
O363       Al370   1.939       .  S
O364       Al370   1.889       .  S
O365        C372   1.259       .  A
O366       Al370   1.776       .  S
O367        C368   1.259       .  A
C368        C826   1.478       .  S
C369       C1858   1.494       .  S
C372        C797   1.497       .  S
C373        O374   1.267       .  A
C373       C1762   1.484       .  S
O375        C390   1.264       .  A
O375       Al383   1.922       .  S
C376        O386   1.257       .  A
C376        O377   1.257       .  A
C376        C845   1.483       .  S
O377       Al379   1.903       .  S
O378        C380   1.262       .  A
O378       Al379   1.891       .  S
Al379       O387   1.880       .  S
Al379       O389   1.892       .  S
Al379       O388   1.780       .  S
C380        O393   1.267       .  A
C380        C946   1.487       .  S
O381        C391   1.265       .  A
O381       Al383   1.913       .  S
O382        C395   1.260       .  A
O382       Al392   1.894       .  S
Al383       O396   1.922       .  S
Al383       O393   1.933       .  S
Al383       O388   1.783       .  S
O384        C391   1.264       .  A
O384       Al392   1.914       .  S
O385        C394   1.269       .  A
O385       Al392   1.942       .  S
O386       Al392   1.902       .  S
O387        C394   1.260       .  A
O388       Al392   1.780       .  S
O389        C390   1.258       .  A
C390        C749   1.474       .  S
C391       C2117   1.498       .  S
C394        C730   1.495       .  S
C395        O396   1.264       .  A
C395       C1978   1.487       .  S
O397        C412   1.261       .  A
O397       Al405   1.907       .  S
C398        O408   1.256       .  A
C398        O399   1.263       .  A
C398       C1066   1.469       .  S
O399       Al401   1.921       .  S
O400        C402   1.263       .  A
O400       Al401   1.897       .  S
Al401       O409   1.893       .  S
Al401       O411   1.894       .  S
Al401       O410   1.779       .  S
C402        O415   1.267       .  A
C402        C677   1.487       .  S
O403        C413   1.264       .  A
O403       Al405   1.916       .  S
O404        C417   1.257       .  A
O404       Al414   1.867       .  S
Al405       O418   1.933       .  S
Al405       O415   1.924       .  S
Al405       O410   1.780       .  S
O406        C413   1.259       .  A
O406       Al414   1.901       .  S
O407        C416   1.262       .  A
O407       Al414   1.918       .  S
O408       Al414   1.870       .  S
O409        C416   1.259       .  A
O410       Al414   1.779       .  S
O411        C412   1.259       .  A
C412        C706   1.467       .  S
C413       C1157   1.495       .  S
C416        C754   1.492       .  S
C417        O418   1.268       .  A
C417       C1402   1.470       .  S
O419        C434   1.265       .  A
O419       Al427   1.921       .  S
C420        O430   1.255       .  A
C420        O421   1.259       .  A
C420        C634   1.471       .  S
O421       Al423   1.907       .  S
O422        C424   1.264       .  A
O422       Al423   1.898       .  S
Al423       O431   1.878       .  S
Al423       O433   1.895       .  S
Al423       O432   1.783       .  S
C424        O437   1.264       .  A
C424        C653   1.485       .  S
O425        C435   1.261       .  A
O425       Al427   1.902       .  S
O426        C439   1.256       .  A
O426       Al436   1.874       .  S
Al427       O440   1.922       .  S
Al427       O437   1.910       .  S
Al427       O432   1.780       .  S
O428        C435   1.263       .  A
O428       Al436   1.912       .  S
O429        C438   1.267       .  A
O429       Al436   1.929       .  S
O430       Al436   1.886       .  S
O431        C438   1.259       .  A
O432       Al436   1.781       .  S
O433        C434   1.259       .  A
C434        C725   1.483       .  S
C435       C1229   1.495       .  S
C438        C701   1.476       .  S
C439        O440   1.265       .  A
C439       C1498   1.479       .  S
O441        C456   1.262       .  A
O441       Al449   1.911       .  S
C442        O452   1.259       .  A
C442        O443   1.261       .  A
C442        C581   1.470       .  S
O443       Al445   1.914       .  S
O444        C446   1.261       .  A
O444       Al445   1.878       .  S
Al445       O453   1.880       .  S
Al445       O455   1.893       .  S
Al445       O454   1.773       .  S
C446        O459   1.264       .  A
C446        C629   1.479       .  S
O447        C457   1.260       .  A
O447       Al449   1.901       .  S
O448        C461   1.261       .  A
O448       Al458   1.881       .  S
Al449       O462   1.919       .  S
Al449       O459   1.911       .  S
Al449       O454   1.776       .  S
O450        C457   1.257       .  A
O450       Al458   1.896       .  S
O451        C460   1.265       .  A
O451       Al458   1.926       .  S
O452       Al458   1.898       .  S
O453        C460   1.260       .  A
O454       Al458   1.775       .  S
O455        C456   1.259       .  A
C456        C610   1.474       .  S
C457       C1373   1.482       .  S
C460        C557   1.486       .  S
C461        O462   1.268       .  A
C461       C1186   1.480       .  S
O463        C478   1.261       .  A
O463       Al471   1.921       .  S
C464        O474   1.256       .  A
C464        O465   1.259       .  A
C464        C658   1.481       .  S
O465       Al467   1.910       .  S
O466        C468   1.264       .  A
O466       Al467   1.888       .  S
Al467       O475   1.873       .  S
Al467       O477   1.904       .  S
Al467       O476   1.779       .  S
C468        O481   1.269       .  A
C468        C586   1.488       .  S
O469        C479   1.260       .  A
O469       Al471   1.899       .  S
O470        C483   1.258       .  A
O470       Al480   1.871       .  S
Al471       O484   1.919       .  S
Al471       O481   1.926       .  S
Al471       O476   1.775       .  S
O472        C479   1.262       .  A
O472       Al480   1.910       .  S
O473        C482   1.269       .  A
O473       Al480   1.936       .  S
O474       Al480   1.895       .  S
O475        C482   1.261       .  A
O476       Al480   1.780       .  S
O477        C478   1.258       .  A
C478        C802   1.482       .  S
C479       C1114   1.488       .  S
C482        C874   1.481       .  S
C483        O484   1.265       .  A
C483       C1325   1.476       .  S
O485        C500   1.266       .  A
O485       Al493   1.921       .  S
C486        O496   1.257       .  A
C486        O487   1.259       .  A
C486        C922   1.483       .  S
O487       Al489   1.909       .  S
O488        C490   1.263       .  A
O488       Al489   1.894       .  S
Al489       O497   1.876       .  S
Al489       O499   1.891       .  S
Al489       O498   1.775       .  S
C490        O503   1.269       .  A
C490        C778   1.480       .  S
O491        C501   1.262       .  A
O491       Al493   1.899       .  S
O492        C505   1.259       .  A
O492       Al502   1.887       .  S
Al493       O506   1.937       .  S
Al493       O503   1.933       .  S
Al493       O498   1.778       .  S
O494        C501   1.266       .  A
O494       Al502   1.919       .  S
O495        C504   1.270       .  A
O495       Al502   1.945       .  S
O496       Al502   1.901       .  S
O497        C504   1.259       .  A
O498       Al502   1.777       .  S
O499        C500   1.259       .  A
C500        C562   1.473       .  S
C501       C1306   1.488       .  S
C504        C533   1.495       .  S
C505        O506   1.267       .  A
C505       C1138   1.485       .  S
O507        C522   1.268       .  A
O507       Al515   1.934       .  S
C508        O518   1.258       .  A
C508        O509   1.261       .  A
C508        C682   1.479       .  S
O509       Al511   1.910       .  S
O510        C512   1.261       .  A
O510       Al511   1.892       .  S
Al511       O519   1.888       .  S
Al511       O521   1.898       .  S
Al511       O520   1.773       .  S
C512        O525   1.268       .  A
C512       C1018   1.479       .  S
O513        C523   1.269       .  A
O513       Al515   1.934       .  S
O514        C527   1.256       .  A
O514       Al524   1.871       .  S
Al515       O528   1.937       .  S
Al515       O525   1.937       .  S
Al515       O520   1.782       .  S
O516        C523   1.261       .  A
O516       Al524   1.902       .  S
O517        C526   1.263       .  A
O517       Al524   1.924       .  S
O518       Al524   1.896       .  S
O519        C526   1.258       .  A
O520       Al524   1.775       .  S
O521        C522   1.261       .  A
C522        C538   1.492       .  S
C523       C1546   1.500       .  S
C526        C605   1.474       .  S
C527        O528   1.268       .  A
C527       C1618   1.482       .  S
C529        C530   1.414       .  A
C529        C534   1.407       .  A
C529        C543   1.443       .  S
C530        C535   1.496       .  S
C530        C531   1.403       .  A
C531        C532   1.397       .  A
C531        H550   1.086       .  S
C532        C533   1.420       .  A
C532        C544   1.445       .  S
C533        C534   1.408       .  A
C534        H549   1.085       .  S
C535        C536   1.400       .  A
C535        C540   1.415       .  A
C536        C537   1.392       .  A
C536        H551   1.086       .  S
C537        C538   1.419       .  A
C537        C541   1.446       .  S
C538        C539   1.409       .  A
C539        C540   1.412       .  A
C539        H552   1.084       .  S
C540        C542   1.443       .  S
C541        N545   1.157       .  T
C542        N546   1.157       .  T
C543        N548   1.157       .  T
C544        N547   1.157       .  T
C553        C554   1.409       .  A
C553        C558   1.395       .  A
C553        C567   1.445       .  S
C554        C559   1.484       .  S
C554        C555   1.403       .  A
C555        C556   1.402       .  A
C555        H574   1.085       .  S
C556        C557   1.417       .  A
C556        C568   1.444       .  S
C557        C558   1.407       .  A
C558        H573   1.085       .  S
C559        C560   1.408       .  A
C559        C564   1.409       .  A
C560        C561   1.403       .  A
C560        H575   1.085       .  S
C561        C562   1.408       .  A
C561        C565   1.443       .  S
C562        C563   1.406       .  A
C563        C564   1.394       .  A
C563        H576   1.086       .  S
C564        C566   1.446       .  S
C565        N569   1.157       .  T
C566        N570   1.157       .  T
C567        N572   1.157       .  T
C568        N571   1.157       .  T
C577        C578   1.410       .  A
C577        C582   1.396       .  A
C577        C591   1.443       .  S
C578        C583   1.476       .  S
C578        C579   1.399       .  A
C579        C580   1.400       .  A
C579        H598   1.085       .  S
C580        C581   1.414       .  A
C580        C592   1.443       .  S
C581        C582   1.400       .  A
C582        H597   1.085       .  S
C583        C584   1.398       .  A
C583        C588   1.406       .  A
C584        C585   1.398       .  A
C584        H599   1.086       .  S
C585        C586   1.420       .  A
C585        C589   1.444       .  S
C586        C587   1.410       .  A
C587        C588   1.398       .  A
C587        H600   1.085       .  S
C588        C590   1.444       .  S
C589        N593   1.157       .  T
C590        N594   1.157       .  T
C591        N596   1.157       .  T
C592        N595   1.157       .  T
C601        C602   1.412       .  A
C601        C606   1.404       .  A
C601        C615   1.444       .  S
C602        C607   1.492       .  S
C602        C603   1.407       .  A
C603        C604   1.399       .  A
C603        H622   1.085       .  S
C604        C605   1.406       .  A
C604        C616   1.442       .  S
C605        C606   1.405       .  A
C606        H621   1.086       .  S
C607        C608   1.408       .  A
C607        C612   1.413       .  A
C608        C609   1.405       .  A
C608        H623   1.084       .  S
C609        C610   1.409       .  A
C609        C613   1.443       .  S
C610        C611   1.401       .  A
C611        C612   1.396       .  A
C611        H624   1.085       .  S
C612        C614   1.445       .  S
C613        N617   1.157       .  T
C614        N618   1.157       .  T
C615        N620   1.157       .  T
C616        N619   1.157       .  T
C625        C626   1.407       .  A
C625        C630   1.393       .  A
C625        C639   1.445       .  S
C626        C631   1.470       .  S
C626        C627   1.398       .  A
C627        C628   1.397       .  A
C627        H646   1.085       .  S
C628        C629   1.418       .  A
C628        C640   1.444       .  S
C629        C630   1.407       .  A
C630        H645   1.085       .  S
C631        C632   1.396       .  A
C631        C636   1.409       .  A
C632        C633   1.396       .  A
C632        H647   1.085       .  S
C633        C634   1.415       .  A
C633        C637   1.442       .  S
C634        C635   1.403       .  A
C635        C636   1.395       .  A
C635        H648   1.085       .  S
C636        C638   1.445       .  S
C637        N641   1.156       .  T
C638        N642   1.157       .  T
C639        N644   1.157       .  T
C640        N643   1.157       .  T
C649        C650   1.408       .  A
C649        C654   1.400       .  A
C649        C663   1.444       .  S
C650        C655   1.475       .  S
C650        C651   1.395       .  A
C651        C652   1.396       .  A
C651        H670   1.086       .  S
C652        C653   1.422       .  A
C652        C664   1.445       .  S
C653        C654   1.407       .  A
C654        H669   1.085       .  S
C655        C656   1.398       .  A
C655        C660   1.407       .  A
C656        C657   1.399       .  A
C656        H671   1.086       .  S
C657        C658   1.418       .  A
C657        C661   1.444       .  S
C658        C659   1.406       .  A
C659        C660   1.397       .  A
C659        H672   1.085       .  S
C660        C662   1.445       .  S
C661        N665   1.157       .  T
C662        N666   1.157       .  T
C663        N668   1.157       .  T
C664        N667   1.157       .  T
C673        C674   1.407       .  A
C673        C678   1.400       .  A
C673        C687   1.444       .  S
C674        C679   1.481       .  S
C674        C675   1.403       .  A
C675        C676   1.401       .  A
C675        H694   1.085       .  S
C676        C677   1.416       .  A
C676        C688   1.445       .  S
C677        C678   1.408       .  A
C678        H693   1.084       .  S
C679        C680   1.400       .  A
C679        C684   1.409       .  A
C680        C681   1.395       .  A
C680        H695   1.085       .  S
C681        C682   1.412       .  A
C681        C685   1.443       .  S
C682        C683   1.408       .  A
C683        C684   1.404       .  A
C683        H696   1.084       .  S
C684        C686   1.443       .  S
C685        N689   1.157       .  T
C686        N690   1.157       .  T
C687        N692   1.157       .  T
C688        N691   1.157       .  T
C697        C698   1.412       .  A
C697        C702   1.402       .  A
C697        C711   1.444       .  S
C698        C703   1.488       .  S
C698        C699   1.405       .  A
C699        C700   1.398       .  A
C699        H718   1.085       .  S
C700        C701   1.410       .  A
C700        C712   1.444       .  S
C701        C702   1.405       .  A
C702        H717   1.085       .  S
C703        C704   1.406       .  A
C703        C708   1.414       .  A
C704        C705   1.402       .  A
C704        H719   1.084       .  S
C705        C706   1.407       .  A
C705        C709   1.443       .  S
C706        C707   1.401       .  A
C707        C708   1.398       .  A
C707        H720   1.085       .  S
C708        C710   1.445       .  S
C709        N713   1.157       .  T
C710        N714   1.157       .  T
C711        N716   1.157       .  T
C712        N715   1.157       .  T
C721        C722   1.407       .  A
C721        C726   1.396       .  A
C721        C735   1.444       .  S
C722        C727   1.487       .  S
C722        C723   1.407       .  A
C723        C724   1.407       .  A
C723        H742   1.086       .  S
C724        C725   1.411       .  A
C724        C736   1.443       .  S
C725        C726   1.408       .  A
C726        H741   1.087       .  S
C727        C728   1.403       .  A
C727        C732   1.408       .  A
C728        C729   1.405       .  A
C728        H743   1.086       .  S
C729        C730   1.418       .  A
C729        C733   1.443       .  S
C730        C731   1.410       .  A
C731        C732   1.399       .  A
C731        H744   1.085       .  S
C732        C734   1.445       .  S
C733        N737   1.157       .  T
C734        N738   1.157       .  T
C735        N740   1.157       .  T
C736        N739   1.157       .  T
C745        C746   1.409       .  A
C745        C750   1.393       .  A
C745        C759   1.445       .  S
C746        C751   1.484       .  S
C746        C747   1.407       .  A
C747        C748   1.406       .  A
C747        H766   1.084       .  S
C748        C749   1.410       .  A
C748        C760   1.443       .  S
C749        C750   1.403       .  A
C750        H765   1.086       .  S
C751        C752   1.401       .  A
C751        C756   1.408       .  A
C752        C753   1.400       .  A
C752        H767   1.085       .  S
C753        C754   1.420       .  A
C753        C757   1.444       .  S
C754        C755   1.410       .  A
C755        C756   1.400       .  A
C755        H768   1.084       .  S
C756        C758   1.444       .  S
C757        N761   1.157       .  T
C758        N762   1.157       .  T
C759        N764   1.157       .  T
C760        N763   1.157       .  T
C769        C770   1.407       .  A
C769        C774   1.400       .  A
C769        C783   1.444       .  S
C770        C775   1.482       .  S
C770        C771   1.401       .  A
C771        C772   1.400       .  A
C771        H790   1.085       .  S
C772        C773   1.416       .  A
C772        C784   1.444       .  S
C773        C774   1.409       .  A
C774        H789   1.085       .  S
C775        C776   1.403       .  A
C775        C780   1.408       .  A
C776        C777   1.402       .  A
C776        H791   1.086       .  S
C777        C778   1.412       .  A
C777        C781   1.444       .  S
C778        C779   1.406       .  A
C779        C780   1.398       .  A
C779        H792   1.086       .  S
C780        C782   1.444       .  S
C781        N785   1.157       .  T
C782        N786   1.157       .  T
C783        N788   1.157       .  T
C784        N787   1.157       .  T
C793        C794   1.410       .  A
C793        C798   1.403       .  A
C793        C807   1.443       .  S
C794        C799   1.490       .  S
C794        C795   1.401       .  A
C795        C796   1.403       .  A
C795        H814   1.085       .  S
C796        C797   1.423       .  A
C796        C808   1.445       .  S
C797        C798   1.409       .  A
C798        H813   1.084       .  S
C799        C800   1.401       .  A
C799        C804   1.414       .  A
C800        C801   1.397       .  A
C800        H815   1.085       .  S
C801        C802   1.413       .  A
C801        C805   1.443       .  S
C802        C803   1.404       .  A
C803        C804   1.408       .  A
C803        H816   1.084       .  S
C804        C806   1.443       .  S
C805        N809   1.156       .  T
C806        N810   1.157       .  T
C807        N812   1.157       .  T
C808        N811   1.158       .  T
C817        C818   1.409       .  A
C817        C822   1.400       .  A
C817        C831   1.444       .  S
C818        C823   1.487       .  S
C818        C819   1.402       .  A
C819        C820   1.401       .  A
C819        H838   1.085       .  S
C820        C821   1.420       .  A
C820        C832   1.444       .  S
C821        C822   1.410       .  A
C822        H837   1.084       .  S
C823        C824   1.399       .  A
C823        C828   1.414       .  A
C824        C825   1.395       .  A
C824        H839   1.085       .  S
C825        C826   1.415       .  A
C825        C829   1.443       .  S
C826        C827   1.403       .  A
C827        C828   1.406       .  A
C827        H840   1.085       .  S
C828        C830   1.443       .  S
C829        N833   1.156       .  T
C830        N834   1.157       .  T
C831        N836   1.157       .  T
C832        N835   1.157       .  T
C841        C842   1.408       .  A
C841        C846   1.403       .  A
C841        C855   1.443       .  S
C842        C847   1.481       .  S
C842        C843   1.400       .  A
C843        C844   1.399       .  A
C843        H862   1.085       .  S
C844        C845   1.415       .  A
C844        C856   1.444       .  S
C845        C846   1.408       .  A
C846        H861   1.085       .  S
C847        C848   1.403       .  A
C847        C852   1.408       .  A
C848        C849   1.402       .  A
C848        H863   1.085       .  S
C849        C850   1.413       .  A
C849        C853   1.444       .  S
C850        C851   1.405       .  A
C851        C852   1.400       .  A
C851        H864   1.085       .  S
C852        C854   1.444       .  S
C853        N857   1.157       .  T
C854        N858   1.157       .  T
C855        N860   1.157       .  T
C856        N859   1.157       .  T
C865        C866   1.407       .  A
C865        C870   1.394       .  A
C865        C879   1.444       .  S
C866        C871   1.474       .  S
C866        C867   1.405       .  A
C867        C868   1.402       .  A
C867        H886   1.085       .  S
C868        C869   1.407       .  A
C868        C880   1.444       .  S
C869        C870   1.401       .  A
C870        H885   1.086       .  S
C871        C872   1.400       .  A
C871        C876   1.407       .  A
C872        C873   1.402       .  A
C872        H887   1.086       .  S
C873        C874   1.418       .  A
C873        C877   1.443       .  S
C874        C875   1.405       .  A
C875        C876   1.394       .  A
C875        H888   1.085       .  S
C876        C878   1.445       .  S
C877        N881   1.157       .  T
C878        N882   1.157       .  T
C879        N884   1.157       .  T
C880        N883   1.157       .  T
C889        C890   1.411       .  A
C889        C894   1.398       .  A
C889        C903   1.444       .  S
C890        C895   1.480       .  S
C890        C891   1.400       .  A
C891        C892   1.400       .  A
C891        H910   1.085       .  S
C892        C893   1.414       .  A
C892        C904   1.443       .  S
C893        C894   1.401       .  A
C894        H909   1.085       .  S
C895        C896   1.400       .  A
C895        C900   1.406       .  A
C896        C897   1.404       .  A
C896        H911   1.085       .  S
C897        C898   1.420       .  A
C897        C901   1.443       .  S
C898        C899   1.409       .  A
C899        C900   1.396       .  A
C899        H912   1.084       .  S
C900        C902   1.445       .  S
C901        N905   1.157       .  T
C902        N906   1.157       .  T
C903        N908   1.157       .  T
C904        N907   1.156       .  T
C913        C914   1.409       .  A
C913        C918   1.397       .  A
C913        C927   1.444       .  S
C914        C919   1.478       .  S
C914        C915   1.399       .  A
C915        C916   1.398       .  A
C915        H934   1.086       .  S
C916        C917   1.419       .  A
C916        C928   1.444       .  S
C917        C918   1.408       .  A
C918        H933   1.086       .  S
C919        C920   1.397       .  A
C919        C924   1.409       .  A
C920        C921   1.398       .  A
C920        H935   1.085       .  S
C921        C922   1.417       .  A
C921        C925   1.440       .  S
C922        C923   1.406       .  A
C923        C924   1.399       .  A
C923        H936   1.085       .  S
C924        C926   1.444       .  S
C925        N929   1.156       .  T
C926        N930   1.157       .  T
C927        N932   1.157       .  T
C928        N931   1.157       .  T
C937        C938   1.410       .  A
C937        C942   1.397       .  A
C937        C951   1.445       .  S
C938        C943   1.487       .  S
C938        C939   1.402       .  A
C939        C940   1.405       .  A
C939        H958   1.086       .  S
C940        C941   1.420       .  A
C940        C952   1.444       .  S
C941        C942   1.406       .  A
C942        H957   1.086       .  S
C943        C944   1.401       .  A
C943        C948   1.410       .  A
C944        C945   1.403       .  A
C944        H959   1.085       .  S
C945        C946   1.419       .  A
C945        C949   1.444       .  S
C946        C947   1.406       .  A
C947        C948   1.399       .  A
C947        H960   1.085       .  S
C948        C950   1.444       .  S
C949        N953   1.157       .  T
C950        N954   1.157       .  T
C951        N956   1.157       .  T
C952        N955   1.157       .  T
C961        C962   1.410       .  A
C961        C966   1.398       .  A
C961        C975   1.443       .  S
C962        C967   1.480       .  S
C962        C963   1.399       .  A
C963        C964   1.399       .  A
C963        H982   1.085       .  S
C964        C965   1.419       .  A
C964        C976   1.445       .  S
C965        C966   1.403       .  A
C966        H981   1.085       .  S
C967        C968   1.400       .  A
C967        C972   1.408       .  A
C968        C969   1.403       .  A
C968        H983   1.085       .  S
C969        C970   1.420       .  A
C969        C973   1.445       .  S
C970        C971   1.406       .  A
C971        C972   1.395       .  A
C971        H984   1.085       .  S
C972        C974   1.445       .  S
C973        N977   1.157       .  T
C974        N978   1.157       .  T
C975        N980   1.157       .  T
C976        N979   1.157       .  T
C985        C986   1.409       .  A
C985        C990   1.402       .  A
C985        C999   1.444       .  S
C986        C991   1.484       .  S
C986        C987   1.400       .  A
C987        C988   1.400       .  A
C987       H1006   1.086       .  S
C988        C989   1.420       .  A
C988       C1000   1.445       .  S
C989        C990   1.408       .  A
C990       H1005   1.085       .  S
C991        C992   1.397       .  A
C991        C996   1.412       .  A
C992        C993   1.395       .  A
C992       H1007   1.086       .  S
C993        C994   1.420       .  A
C993        C997   1.446       .  S
C994        C995   1.405       .  A
C995        C996   1.407       .  A
C995       H1008   1.085       .  S
C996        C998   1.443       .  S
C997       N1001   1.157       .  T
C998       N1002   1.157       .  T
C999       N1004   1.157       .  T
C1000      N1003   1.157       .  T
C1009      C1010   1.407       .  A
C1009      C1014   1.398       .  A
C1009      C1023   1.445       .  S
C1010      C1015   1.483       .  S
C1010      C1011   1.401       .  A
C1011      C1012   1.405       .  A
C1011      H1030   1.085       .  S
C1012      C1013   1.420       .  A
C1012      C1024   1.444       .  S
C1013      C1014   1.409       .  A
C1014      H1029   1.085       .  S
C1015      C1016   1.400       .  A
C1015      C1020   1.410       .  A
C1016      C1017   1.401       .  A
C1016      H1031   1.085       .  S
C1017      C1018   1.415       .  A
C1017      C1021   1.445       .  S
C1018      C1019   1.405       .  A
C1019      C1020   1.403       .  A
C1019      H1032   1.084       .  S
C1020      C1022   1.443       .  S
C1021      N1025   1.157       .  T
C1022      N1026   1.157       .  T
C1023      N1028   1.157       .  T
C1024      N1027   1.157       .  T
C1033      C1034   1.407       .  A
C1033      C1038   1.395       .  A
C1033      C1047   1.445       .  S
C1034      C1039   1.480       .  S
C1034      C1035   1.403       .  A
C1035      C1036   1.402       .  A
C1035      H1054   1.085       .  S
C1036      C1037   1.415       .  A
C1036      C1048   1.444       .  S
C1037      C1038   1.408       .  A
C1038      H1053   1.085       .  S
C1039      C1040   1.405       .  A
C1039      C1044   1.407       .  A
C1040      C1041   1.404       .  A
C1040      H1055   1.084       .  S
C1041      C1042   1.412       .  A
C1041      C1045   1.443       .  S
C1042      C1043   1.407       .  A
C1043      C1044   1.394       .  A
C1043      H1056   1.085       .  S
C1044      C1046   1.446       .  S
C1045      N1049   1.157       .  T
C1046      N1050   1.157       .  T
C1047      N1052   1.157       .  T
C1048      N1051   1.157       .  T
C1057      C1058   1.404       .  A
C1057      C1062   1.393       .  A
C1057      C1071   1.444       .  S
C1058      C1063   1.467       .  S
C1058      C1059   1.401       .  A
C1059      C1060   1.397       .  A
C1059      H1078   1.085       .  S
C1060      C1061   1.412       .  A
C1060      C1072   1.445       .  S
C1061      C1062   1.405       .  A
C1062      H1077   1.084       .  S
C1063      C1064   1.401       .  A
C1063      C1068   1.403       .  A
C1064      C1065   1.397       .  A
C1064      H1079   1.085       .  S
C1065      C1066   1.411       .  A
C1065      C1069   1.444       .  S
C1066      C1067   1.405       .  A
C1067      C1068   1.394       .  A
C1067      H1080   1.086       .  S
C1068      C1070   1.444       .  S
C1069      N1073   1.157       .  T
C1070      N1074   1.157       .  T
C1071      N1076   1.157       .  T
C1072      N1075   1.157       .  T
C1081      C1082   1.408       .  A
C1081      C1086   1.401       .  A
C1081      C1095   1.444       .  S
C1082      C1087   1.486       .  S
C1082      C1083   1.401       .  A
C1083      C1084   1.403       .  A
C1083      H1102   1.085       .  S
C1084      C1085   1.420       .  A
C1084      C1096   1.444       .  S
C1085      C1086   1.408       .  A
C1086      H1101   1.085       .  S
C1087      C1088   1.407       .  A
C1087      C1092   1.408       .  A
C1088      C1089   1.408       .  A
C1088      H1103   1.084       .  S
C1089      C1090   1.409       .  A
C1089      C1093   1.444       .  S
C1090      C1091   1.404       .  A
C1091      C1092   1.397       .  A
C1091      H1104   1.085       .  S
C1092      C1094   1.444       .  S
C1093      N1097   1.157       .  T
C1094      N1098   1.157       .  T
C1095      N1100   1.157       .  T
C1096      N1099   1.157       .  T
C1105      C1106   1.408       .  A
C1105      C1110   1.401       .  A
C1105      C1119   1.443       .  S
C1106      C1111   1.482       .  S
C1106      C1107   1.399       .  A
C1107      C1108   1.401       .  A
C1107      H1126   1.086       .  S
C1108      C1109   1.421       .  A
C1108      C1120   1.445       .  S
C1109      C1110   1.407       .  A
C1110      H1125   1.085       .  S
C1111      C1112   1.401       .  A
C1111      C1116   1.407       .  A
C1112      C1113   1.404       .  A
C1112      H1127   1.085       .  S
C1113      C1114   1.418       .  A
C1113      C1117   1.444       .  S
C1114      C1115   1.407       .  A
C1115      C1116   1.398       .  A
C1115      H1128   1.085       .  S
C1116      C1118   1.444       .  S
C1117      N1121   1.157       .  T
C1118      N1122   1.157       .  T
C1119      N1124   1.157       .  T
C1120      N1123   1.158       .  T
C1129      C1130   1.413       .  A
C1129      C1134   1.405       .  A
C1129      C1143   1.444       .  S
C1130      C1135   1.493       .  S
C1130      C1131   1.400       .  A
C1131      C1132   1.402       .  A
C1131      H1150   1.087       .  S
C1132      C1133   1.421       .  A
C1132      C1144   1.444       .  S
C1133      C1134   1.408       .  A
C1134      H1149   1.086       .  S
C1135      C1136   1.405       .  A
C1135      C1140   1.412       .  A
C1136      C1137   1.404       .  A
C1136      H1151   1.085       .  S
C1137      C1138   1.414       .  A
C1137      C1141   1.444       .  S
C1138      C1139   1.406       .  A
C1139      C1140   1.402       .  A
C1139      H1152   1.086       .  S
C1140      C1142   1.444       .  S
C1141      N1145   1.157       .  T
C1142      N1146   1.157       .  T
C1143      N1148   1.157       .  T
C1144      N1147   1.157       .  T
C1153      C1154   1.409       .  A
C1153      C1158   1.404       .  A
C1153      C1167   1.444       .  S
C1154      C1159   1.485       .  S
C1154      C1155   1.398       .  A
C1155      C1156   1.399       .  A
C1155      H1174   1.085       .  S
C1156      C1157   1.424       .  A
C1156      C1168   1.445       .  S
C1157      C1158   1.409       .  A
C1158      H1173   1.084       .  S
C1159      C1160   1.404       .  A
C1159      C1164   1.410       .  A
C1160      C1161   1.403       .  A
C1160      H1175   1.085       .  S
C1161      C1162   1.413       .  A
C1161      C1165   1.444       .  S
C1162      C1163   1.405       .  A
C1163      C1164   1.399       .  A
C1163      H1176   1.085       .  S
C1164      C1166   1.444       .  S
C1165      N1169   1.157       .  T
C1166      N1170   1.157       .  T
C1167      N1172   1.157       .  T
C1168      N1171   1.158       .  T
C1177      C1178   1.410       .  A
C1177      C1182   1.399       .  A
C1177      C1191   1.444       .  S
C1178      C1183   1.479       .  S
C1178      C1179   1.402       .  A
C1179      C1180   1.396       .  A
C1179      H1198   1.080       .  S
C1180      C1181   1.413       .  A
C1180      C1192   1.445       .  S
C1181      C1182   1.404       .  A
C1182      H1197   1.079       .  S
C1183      C1184   1.401       .  A
C1183      C1188   1.408       .  A
C1184      C1185   1.397       .  A
C1184      H1199   1.086       .  S
C1185      C1186   1.417       .  A
C1185      C1189   1.445       .  S
C1186      C1187   1.406       .  A
C1187      C1188   1.396       .  A
C1187      H1200   1.086       .  S
C1188      C1190   1.444       .  S
C1189      N1193   1.157       .  T
C1190      N1194   1.157       .  T
C1191      N1196   1.157       .  T
C1192      N1195   1.157       .  T
C1201      C1202   1.408       .  A
C1201      C1206   1.396       .  A
C1201      C1215   1.444       .  S
C1202      C1207   1.479       .  S
C1202      C1203   1.405       .  A
C1203      C1204   1.402       .  A
C1203      H1222   1.084       .  S
C1204      C1205   1.407       .  A
C1204      C1216   1.443       .  S
C1205      C1206   1.405       .  A
C1206      H1221   1.085       .  S
C1207      C1208   1.404       .  A
C1207      C1212   1.409       .  A
C1208      C1209   1.404       .  A
C1208      H1223   1.084       .  S
C1209      C1210   1.412       .  A
C1209      C1213   1.444       .  S
C1210      C1211   1.403       .  A
C1211      C1212   1.393       .  A
C1211      H1224   1.085       .  S
C1212      C1214   1.445       .  S
C1213      N1217   1.157       .  T
C1214      N1218   1.157       .  T
C1215      N1220   1.157       .  T
C1216      N1219   1.157       .  T
C1225      C1226   1.407       .  A
C1225      C1230   1.398       .  A
C1225      C1239   1.445       .  S
C1226      C1231   1.485       .  S
C1226      C1227   1.402       .  A
C1227      C1228   1.405       .  A
C1227      H1246   1.085       .  S
C1228      C1229   1.420       .  A
C1228      C1240   1.444       .  S
C1229      C1230   1.410       .  A
C1230      H1245   1.084       .  S
C1231      C1232   1.401       .  A
C1231      C1236   1.409       .  A
C1232      C1233   1.400       .  A
C1232      H1247   1.086       .  S
C1233      C1234   1.418       .  A
C1233      C1237   1.445       .  S
C1234      C1235   1.406       .  A
C1235      C1236   1.401       .  A
C1235      H1248   1.086       .  S
C1236      C1238   1.443       .  S
C1237      N1241   1.158       .  T
C1238      N1242   1.157       .  T
C1239      N1244   1.157       .  T
C1240      N1243   1.158       .  T
C1249      C1250   1.411       .  A
C1249      C1254   1.401       .  A
C1249      C1263   1.444       .  S
C1250      C1255   1.482       .  S
C1250      C1251   1.398       .  A
C1251      C1252   1.398       .  A
C1251      H1270   1.091       .  S
C1252      C1253   1.416       .  A
C1252      C1264   1.442       .  S
C1253      C1254   1.404       .  A
C1254      H1269   1.092       .  S
C1255      C1256   1.402       .  A
C1255      C1260   1.408       .  A
C1256      C1257   1.401       .  A
C1256      H1271   1.085       .  S
C1257      C1258   1.415       .  A
C1257      C1261   1.445       .  S
C1258      C1259   1.407       .  A
C1259      C1260   1.400       .  A
C1259      H1272   1.086       .  S
C1260      C1262   1.444       .  S
C1261      N1265   1.157       .  T
C1262      N1266   1.157       .  T
C1263      N1268   1.157       .  T
C1264      N1267   1.156       .  T
C1273      C1274   1.411       .  A
C1273      C1278   1.398       .  A
C1273      C1287   1.444       .  S
C1274      C1279   1.486       .  S
C1274      C1275   1.401       .  A
C1275      C1276   1.403       .  A
C1275      H1294   1.085       .  S
C1276      C1277   1.419       .  A
C1276      C1288   1.443       .  S
C1277      C1278   1.406       .  A
C1278      H1293   1.085       .  S
C1279      C1280   1.401       .  A
C1279      C1284   1.410       .  A
C1280      C1281   1.402       .  A
C1280      H1295   1.084       .  S
C1281      C1282   1.417       .  A
C1281      C1285   1.444       .  S
C1282      C1283   1.406       .  A
C1283      C1284   1.400       .  A
C1283      H1296   1.083       .  S
C1284      C1286   1.444       .  S
C1285      N1289   1.157       .  T
C1286      N1290   1.157       .  T
C1287      N1292   1.157       .  T
C1288      N1291   1.157       .  T
C1297      C1298   1.410       .  A
C1297      C1302   1.408       .  A
C1297      C1311   1.443       .  S
C1298      C1303   1.486       .  S
C1298      C1299   1.396       .  A
C1299      C1300   1.396       .  A
C1299      H1318   1.086       .  S
C1300      C1301   1.424       .  A
C1300      C1312   1.444       .  S
C1301      C1302   1.411       .  A
C1302      H1317   1.085       .  S
C1303      C1304   1.403       .  A
C1303      C1308   1.410       .  A
C1304      C1305   1.405       .  A
C1304      H1319   1.085       .  S
C1305      C1306   1.418       .  A
C1305      C1309   1.444       .  S
C1306      C1307   1.406       .  A
C1307      C1308   1.398       .  A
C1307      H1320   1.085       .  S
C1308      C1310   1.444       .  S
C1309      N1313   1.158       .  T
C1310      N1314   1.157       .  T
C1311      N1316   1.157       .  T
C1312      N1315   1.157       .  T
C1321      C1322   1.409       .  A
C1321      C1326   1.394       .  A
C1321      C1335   1.445       .  S
C1322      C1327   1.480       .  S
C1322      C1323   1.403       .  A
C1323      C1324   1.401       .  A
C1323      H1342   1.085       .  S
C1324      C1325   1.413       .  A
C1324      C1336   1.444       .  S
C1325      C1326   1.404       .  A
C1326      H1341   1.085       .  S
C1327      C1328   1.403       .  A
C1327      C1332   1.408       .  A
C1328      C1329   1.399       .  A
C1328      H1343   1.085       .  S
C1329      C1330   1.415       .  A
C1329      C1333   1.444       .  S
C1330      C1331   1.407       .  A
C1331      C1332   1.396       .  A
C1331      H1344   1.084       .  S
C1332      C1334   1.444       .  S
C1333      N1337   1.157       .  T
C1334      N1338   1.157       .  T
C1335      N1340   1.157       .  T
C1336      N1339   1.157       .  T
C1345      C1346   1.411       .  A
C1345      C1350   1.399       .  A
C1345      C1359   1.445       .  S
C1346      C1351   1.486       .  S
C1346      C1347   1.404       .  A
C1347      C1348   1.402       .  A
C1347      H1366   1.086       .  S
C1348      C1349   1.412       .  A
C1348      C1360   1.443       .  S
C1349      C1350   1.406       .  A
C1350      H1365   1.086       .  S
C1351      C1352   1.408       .  A
C1351      C1356   1.410       .  A
C1352      C1353   1.407       .  A
C1352      H1367   1.084       .  S
C1353      C1354   1.410       .  A
C1353      C1357   1.443       .  S
C1354      C1355   1.405       .  A
C1355      C1356   1.393       .  A
C1355      H1368   1.085       .  S
C1356      C1358   1.445       .  S
C1357      N1361   1.157       .  T
C1358      N1362   1.157       .  T
C1359      N1364   1.157       .  T
C1360      N1363   1.157       .  T
C1369      C1370   1.409       .  A
C1369      C1374   1.401       .  A
C1369      C1383   1.443       .  S
C1370      C1375   1.478       .  S
C1370      C1371   1.397       .  A
C1371      C1372   1.393       .  A
C1371      H1390   1.086       .  S
C1372      C1373   1.419       .  A
C1372      C1384   1.445       .  S
C1373      C1374   1.407       .  A
C1374      H1389   1.085       .  S
C1375      C1376   1.403       .  A
C1375      C1380   1.411       .  A
C1376      C1377   1.400       .  A
C1376      H1391   1.085       .  S
C1377      C1378   1.411       .  A
C1377      C1381   1.444       .  S
C1378      C1379   1.400       .  A
C1379      C1380   1.394       .  A
C1379      H1392   1.086       .  S
C1380      C1382   1.445       .  S
C1381      N1385   1.157       .  T
C1382      N1386   1.157       .  T
C1383      N1388   1.157       .  T
C1384      N1387   1.157       .  T
C1393      C1394   1.407       .  A
C1393      C1398   1.397       .  A
C1393      C1407   1.445       .  S
C1394      C1399   1.485       .  S
C1394      C1395   1.404       .  A
C1395      C1396   1.403       .  A
C1395      H1414   1.085       .  S
C1396      C1397   1.416       .  A
C1396      C1408   1.443       .  S
C1397      C1398   1.409       .  A
C1398      H1413   1.083       .  S
C1399      C1400   1.408       .  A
C1399      C1404   1.410       .  A
C1400      C1401   1.403       .  A
C1400      H1415   1.085       .  S
C1401      C1402   1.408       .  A
C1401      C1405   1.444       .  S
C1402      C1403   1.403       .  A
C1403      C1404   1.395       .  A
C1403      H1416   1.086       .  S
C1404      C1406   1.444       .  S
C1405      N1409   1.157       .  T
C1406      N1410   1.157       .  T
C1407      N1412   1.157       .  T
C1408      N1411   1.157       .  T
C1417      C1418   1.411       .  A
C1417      C1422   1.399       .  A
C1417      C1431   1.445       .  S
C1418      C1423   1.485       .  S
C1418      C1419   1.400       .  A
C1419      C1420   1.401       .  A
C1419      H1438   1.084       .  S
C1420      C1421   1.420       .  A
C1420      C1432   1.444       .  S
C1421      C1422   1.407       .  A
C1422      H1437   1.084       .  S
C1423      C1424   1.399       .  A
C1423      C1428   1.410       .  A
C1424      C1425   1.399       .  A
C1424      H1439   1.086       .  S
C1425      C1426   1.419       .  A
C1425      C1429   1.445       .  S
C1426      C1427   1.406       .  A
C1427      C1428   1.401       .  A
C1427      H1440   1.085       .  S
C1428      C1430   1.444       .  S
C1429      N1433   1.157       .  T
C1430      N1434   1.157       .  T
C1431      N1436   1.157       .  T
C1432      N1435   1.157       .  T
C1441      C1442   1.411       .  A
C1441      C1446   1.407       .  A
C1441      C1455   1.443       .  S
C1442      C1447   1.490       .  S
C1442      C1443   1.401       .  A
C1443      C1444   1.395       .  A
C1443      H1462   1.085       .  S
C1444      C1445   1.418       .  A
C1444      C1456   1.444       .  S
C1445      C1446   1.409       .  A
C1446      H1461   1.084       .  S
C1447      C1448   1.409       .  A
C1447      C1452   1.411       .  A
C1448      C1449   1.408       .  A
C1448      H1463   1.084       .  S
C1449      C1450   1.410       .  A
C1449      C1453   1.443       .  S
C1450      C1451   1.402       .  A
C1451      C1452   1.394       .  A
C1451      H1464   1.086       .  S
C1452      C1454   1.445       .  S
C1453      N1457   1.157       .  T
C1454      N1458   1.157       .  T
C1455      N1460   1.157       .  T
C1456      N1459   1.157       .  T
C1465      C1466   1.407       .  A
C1465      C1470   1.395       .  A
C1465      C1479   1.444       .  S
C1466      C1471   1.475       .  S
C1466      C1467   1.400       .  A
C1467      C1468   1.400       .  A
C1467      H1486   1.085       .  S
C1468      C1469   1.415       .  A
C1468      C1480   1.445       .  S
C1469      C1470   1.404       .  A
C1470      H1485   1.086       .  S
C1471      C1472   1.398       .  A
C1471      C1476   1.407       .  A
C1472      C1473   1.397       .  A
C1472      H1487   1.086       .  S
C1473      C1474   1.416       .  A
C1473      C1477   1.444       .  S
C1474      C1475   1.406       .  A
C1475      C1476   1.399       .  A
C1475      H1488   1.086       .  S
C1476      C1478   1.444       .  S
C1477      N1481   1.157       .  T
C1478      N1482   1.157       .  T
C1479      N1484   1.157       .  T
C1480      N1483   1.157       .  T
C1489      C1490   1.411       .  A
C1489      C1494   1.400       .  A
C1489      C1503   1.444       .  S
C1490      C1495   1.484       .  S
C1490      C1491   1.401       .  A
C1491      C1492   1.398       .  A
C1491      H1510   1.085       .  S
C1492      C1493   1.417       .  A
C1492      C1504   1.445       .  S
C1493      C1494   1.405       .  A
C1494      H1509   1.085       .  S
C1495      C1496   1.401       .  A
C1495      C1500   1.411       .  A
C1496      C1497   1.396       .  A
C1496      H1511   1.085       .  S
C1497      C1498   1.417       .  A
C1497      C1501   1.445       .  S
C1498      C1499   1.405       .  A
C1499      C1500   1.401       .  A
C1499      H1512   1.085       .  S
C1500      C1502   1.443       .  S
C1501      N1505   1.157       .  T
C1502      N1506   1.157       .  T
C1503      N1508   1.157       .  T
C1504      N1507   1.157       .  T
C1513      C1514   1.407       .  A
C1513      C1518   1.395       .  A
C1513      C1527   1.444       .  S
C1514      C1519   1.477       .  S
C1514      C1515   1.405       .  A
C1515      C1516   1.402       .  A
C1515      H1534   1.084       .  S
C1516      C1517   1.407       .  A
C1516      C1528   1.444       .  S
C1517      C1518   1.402       .  A
C1518      H1533   1.085       .  S
C1519      C1520   1.400       .  A
C1519      C1524   1.407       .  A
C1520      C1521   1.403       .  A
C1520      H1535   1.085       .  S
C1521      C1522   1.418       .  A
C1521      C1525   1.443       .  S
C1522      C1523   1.406       .  A
C1523      C1524   1.394       .  A
C1523      H1536   1.085       .  S
C1524      C1526   1.445       .  S
C1525      N1529   1.157       .  T
C1526      N1530   1.157       .  T
C1527      N1532   1.157       .  T
C1528      N1531   1.157       .  T
C1537      C1538   1.408       .  A
C1537      C1542   1.402       .  A
C1537      C1551   1.444       .  S
C1538      C1543   1.488       .  S
C1538      C1539   1.403       .  A
C1539      C1540   1.405       .  A
C1539      H1558   1.085       .  S
C1540      C1541   1.417       .  A
C1540      C1552   1.444       .  S
C1541      C1542   1.409       .  A
C1542      H1557   1.085       .  S
C1543      C1544   1.396       .  A
C1543      C1548   1.410       .  A
C1544      C1545   1.399       .  A
C1544      H1559   1.086       .  S
C1545      C1546   1.426       .  A
C1545      C1549   1.445       .  S
C1546      C1547   1.409       .  A
C1547      C1548   1.409       .  A
C1547      H1560   1.084       .  S
C1548      C1550   1.443       .  S
C1549      N1553   1.157       .  T
C1550      N1554   1.157       .  T
C1551      N1556   1.157       .  T
C1552      N1555   1.157       .  T
C1561      C1562   1.407       .  A
C1561      C1566   1.398       .  A
C1561      C1575   1.444       .  S
C1562      C1567   1.484       .  S
C1562      C1563   1.403       .  A
C1563      C1564   1.403       .  A
C1563      H1582   1.085       .  S
C1564      C1565   1.417       .  A
C1564      C1576   1.444       .  S
C1565      C1566   1.409       .  A
C1566      H1581   1.085       .  S
C1567      C1568   1.402       .  A
C1567      C1572   1.412       .  A
C1568      C1569   1.401       .  A
C1568      H1583   1.085       .  S
C1569      C1570   1.413       .  A
C1569      C1573   1.444       .  S
C1570      C1571   1.401       .  A
C1571      C1572   1.399       .  A
C1571      H1584   1.086       .  S
C1572      C1574   1.444       .  S
C1573      N1577   1.157       .  T
C1574      N1578   1.157       .  T
C1575      N1580   1.157       .  T
C1576      N1579   1.157       .  T
C1585      C1586   1.410       .  A
C1585      C1590   1.401       .  A
C1585      C1599   1.444       .  S
C1586      C1591   1.484       .  S
C1586      C1587   1.402       .  A
C1587      C1588   1.398       .  A
C1587      H1606   1.085       .  S
C1588      C1589   1.415       .  A
C1588      C1600   1.442       .  S
C1589      C1590   1.405       .  A
C1590      H1605   1.082       .  S
C1591      C1592   1.402       .  A
C1591      C1596   1.409       .  A
C1592      C1593   1.397       .  A
C1592      H1607   1.086       .  S
C1593      C1594   1.416       .  A
C1593      C1597   1.444       .  S
C1594      C1595   1.410       .  A
C1595      C1596   1.401       .  A
C1595      H1608   1.085       .  S
C1596      C1598   1.444       .  S
C1597      N1601   1.157       .  T
C1598      N1602   1.157       .  T
C1599      N1604   1.157       .  T
C1600      N1603   1.156       .  T
C1609      C1610   1.412       .  A
C1609      C1614   1.401       .  A
C1609      C1623   1.444       .  S
C1610      C1615   1.485       .  S
C1610      C1611   1.401       .  A
C1611      C1612   1.395       .  A
C1611      H1630   1.085       .  S
C1612      C1613   1.415       .  A
C1612      C1624   1.445       .  S
C1613      C1614   1.405       .  A
C1614      H1629   1.085       .  S
C1615      C1616   1.400       .  A
C1615      C1620   1.412       .  A
C1616      C1617   1.397       .  A
C1616      H1631   1.085       .  S
C1617      C1618   1.419       .  A
C1617      C1621   1.445       .  S
C1618      C1619   1.404       .  A
C1619      C1620   1.400       .  A
C1619      H1632   1.085       .  S
C1620      C1622   1.444       .  S
C1621      N1625   1.157       .  T
C1622      N1626   1.157       .  T
C1623      N1628   1.157       .  T
C1624      N1627   1.157       .  T
C1633      C1634   1.409       .  A
C1633      C1638   1.406       .  A
C1633      C1647   1.444       .  S
C1634      C1639   1.489       .  S
C1634      C1635   1.400       .  A
C1635      C1636   1.398       .  A
C1635      H1654   1.086       .  S
C1636      C1637   1.420       .  A
C1636      C1648   1.445       .  S
C1637      C1638   1.411       .  A
C1638      H1653   1.084       .  S
C1639      C1640   1.406       .  A
C1639      C1644   1.407       .  A
C1640      C1641   1.409       .  A
C1640      H1655   1.084       .  S
C1641      C1642   1.416       .  A
C1641      C1645   1.443       .  S
C1642      C1643   1.410       .  A
C1643      C1644   1.396       .  A
C1643      H1656   1.084       .  S
C1644      C1646   1.445       .  S
C1645      N1649   1.157       .  T
C1646      N1650   1.157       .  T
C1647      N1652   1.157       .  T
C1648      N1651   1.157       .  T
C1657      C1658   1.410       .  A
C1657      C1662   1.408       .  A
C1657      C1671   1.442       .  S
C1658      C1663   1.480       .  S
C1658      C1659   1.396       .  A
C1659      C1660   1.393       .  A
C1659      H1678   1.086       .  S
C1660      C1661   1.415       .  A
C1660      C1672   1.444       .  S
C1661      C1662   1.406       .  A
C1662      H1677   1.084       .  S
C1663      C1664   1.400       .  A
C1663      C1668   1.413       .  A
C1664      C1665   1.399       .  A
C1664      H1679   1.084       .  S
C1665      C1666   1.411       .  A
C1665      C1669   1.445       .  S
C1666      C1667   1.401       .  A
C1667      C1668   1.404       .  A
C1667      H1680   1.084       .  S
C1668      C1670   1.444       .  S
C1669      N1673   1.157       .  T
C1670      N1674   1.157       .  T
C1671      N1676   1.157       .  T
C1672      N1675   1.157       .  T
C1681      C1682   1.407       .  A
C1681      C1686   1.398       .  A
C1681      C1695   1.444       .  S
C1682      C1687   1.480       .  S
C1682      C1683   1.403       .  A
C1683      C1684   1.400       .  A
C1683      H1702   1.085       .  S
C1684      C1685   1.411       .  A
C1684      C1696   1.443       .  S
C1685      C1686   1.408       .  A
C1686      H1701   1.085       .  S
C1687      C1688   1.400       .  A
C1687      C1692   1.407       .  A
C1688      C1689   1.398       .  A
C1688      H1703   1.085       .  S
C1689      C1690   1.417       .  A
C1689      C1693   1.444       .  S
C1690      C1691   1.410       .  A
C1691      C1692   1.401       .  A
C1691      H1704   1.084       .  S
C1692      C1694   1.444       .  S
C1693      N1697   1.157       .  T
C1694      N1698   1.157       .  T
C1695      N1700   1.157       .  T
C1696      N1699   1.157       .  T
C1705      C1706   1.415       .  A
C1705      C1710   1.407       .  A
C1705      C1719   1.444       .  S
C1706      C1711   1.489       .  S
C1706      C1707   1.402       .  A
C1707      C1708   1.399       .  A
C1707      H1726   1.085       .  S
C1708      C1709   1.412       .  A
C1708      C1720   1.445       .  S
C1709      C1710   1.402       .  A
C1710      H1725   1.085       .  S
C1711      C1712   1.401       .  A
C1711      C1716   1.412       .  A
C1712      C1713   1.397       .  A
C1712      H1727   1.086       .  S
C1713      C1714   1.413       .  A
C1713      C1717   1.445       .  S
C1714      C1715   1.406       .  A
C1715      C1716   1.407       .  A
C1715      H1728   1.085       .  S
C1716      C1718   1.443       .  S
C1717      N1721   1.157       .  T
C1718      N1722   1.157       .  T
C1719      N1724   1.157       .  T
C1720      N1723   1.157       .  T
C1729      C1730   1.406       .  A
C1729      C1734   1.398       .  A
C1729      C1743   1.444       .  S
C1730      C1735   1.482       .  S
C1730      C1731   1.402       .  A
C1731      C1732   1.404       .  A
C1731      H1750   1.085       .  S
C1732      C1733   1.418       .  A
C1732      C1744   1.444       .  S
C1733      C1734   1.409       .  A
C1734      H1749   1.085       .  S
C1735      C1736   1.398       .  A
C1735      C1740   1.408       .  A
C1736      C1737   1.399       .  A
C1736      H1751   1.086       .  S
C1737      C1738   1.420       .  A
C1737      C1741   1.445       .  S
C1738      C1739   1.408       .  A
C1739      C1740   1.404       .  A
C1739      H1752   1.085       .  S
C1740      C1742   1.444       .  S
C1741      N1745   1.157       .  T
C1742      N1746   1.157       .  T
C1743      N1748   1.157       .  T
C1744      N1747   1.157       .  T
C1753      C1754   1.413       .  A
C1753      C1758   1.402       .  A
C1753      C1767   1.443       .  S
C1754      C1759   1.485       .  S
C1754      C1755   1.400       .  A
C1755      C1756   1.398       .  A
C1755      H1774   1.086       .  S
C1756      C1757   1.418       .  A
C1756      C1768   1.446       .  S
C1757      C1758   1.402       .  A
C1758      H1773   1.086       .  S
C1759      C1760   1.398       .  A
C1759      C1764   1.413       .  A
C1760      C1761   1.395       .  A
C1760      H1775   1.086       .  S
C1761      C1762   1.418       .  A
C1761      C1765   1.445       .  S
C1762      C1763   1.405       .  A
C1763      C1764   1.405       .  A
C1763      H1776   1.085       .  S
C1764      C1766   1.444       .  S
C1765      N1769   1.157       .  T
C1766      N1770   1.157       .  T
C1767      N1772   1.157       .  T
C1768      N1771   1.158       .  T
C1777      C1778   1.411       .  A
C1777      C1782   1.399       .  A
C1777      C1791   1.444       .  S
C1778      C1783   1.483       .  S
C1778      C1779   1.400       .  A
C1779      C1780   1.398       .  A
C1779      H1798   1.086       .  S
C1780      C1781   1.421       .  A
C1780      C1792   1.445       .  S
C1781      C1782   1.407       .  A
C1782      H1797   1.085       .  S
C1783      C1784   1.397       .  A
C1783      C1788   1.413       .  A
C1784      C1785   1.391       .  A
C1784      H1799   1.086       .  S
C1785      C1786   1.417       .  A
C1785      C1789   1.445       .  S
C1786      C1787   1.404       .  A
C1787      C1788   1.406       .  A
C1787      H1800   1.084       .  S
C1788      C1790   1.443       .  S
C1789      N1793   1.157   1_455  T
C1790      N1794   1.157       .  T
C1791      N1796   1.157       .  T
C1792      N1795   1.157       .  T
C1801      C1802   1.407       .  A
C1801      C1806   1.398       .  A
C1801      C1815   1.444       .  S
C1802      C1807   1.480       .  S
C1802      C1803   1.403       .  A
C1803      C1804   1.398       .  A
C1803      H1822   1.085       .  S
C1804      C1805   1.415       .  A
C1804      C1816   1.445       .  S
C1805      C1806   1.408       .  A
C1806      H1821   1.085       .  S
C1807      C1808   1.401       .  A
C1807      C1812   1.409       .  A
C1808      C1809   1.397       .  A
C1808      H1823   1.087       .  S
C1809      C1810   1.415       .  A
C1809      C1813   1.445       .  S
C1810      C1811   1.407       .  A
C1811      C1812   1.399       .  A
C1811      H1824   1.086       .  S
C1812      C1814   1.444       .  S
C1813      N1817   1.157       .  T
C1814      N1818   1.157       .  T
C1815      N1820   1.157       .  T
C1816      N1819   1.157       .  T
C1825      C1826   1.406       .  A
C1825      C1830   1.393       .  A
C1825      C1839   1.445       .  S
C1826      C1831   1.481       .  S
C1826      C1827   1.407       .  A
C1827      C1828   1.407       .  A
C1827      H1846   1.084       .  S
C1828      C1829   1.409       .  A
C1828      C1840   1.443       .  S
C1829      C1830   1.406       .  A
C1830      H1845   1.085       .  S
C1831      C1832   1.402       .  A
C1831      C1836   1.407       .  A
C1832      C1833   1.405       .  A
C1832      H1847   1.084       .  S
C1833      C1834   1.420       .  A
C1833      C1837   1.444       .  S
C1834      C1835   1.409       .  A
C1835      C1836   1.396       .  A
C1835      H1848   1.084       .  S
C1836      C1838   1.445       .  S
C1837      N1841   1.157       .  T
C1838      N1842   1.157       .  T
C1839      N1844   1.157       .  T
C1840      N1843   1.157       .  T
C1849      C1850   1.412       .  A
C1849      C1854   1.406       .  A
C1849      C1863   1.443       .  S
C1850      C1855   1.490       .  S
C1850      C1851   1.399       .  A
C1851      C1852   1.400       .  A
C1851      H1870   1.086       .  S
C1852      C1853   1.419       .  A
C1852      C1864   1.444       .  S
C1853      C1854   1.407       .  A
C1854      H1869   1.085       .  S
C1855      C1856   1.403       .  A
C1855      C1860   1.409       .  A
C1856      C1857   1.405       .  A
C1856      H1871   1.085       .  S
C1857      C1858   1.418       .  A
C1857      C1861   1.444       .  S
C1858      C1859   1.409       .  A
C1859      C1860   1.402       .  A
C1859      H1872   1.085       .  S
C1860      C1862   1.444       .  S
C1861      N1865   1.157       .  T
C1862      N1866   1.157       .  T
C1863      N1868   1.157       .  T
C1864      N1867   1.157       .  T
C1873      C1874   1.407       .  A
C1873      C1878   1.397       .  A
C1873      C1887   1.444       .  S
C1874      C1879   1.484       .  S
C1874      C1875   1.403       .  A
C1875      C1876   1.403       .  A
C1875      H1894   1.082       .  S
C1876      C1877   1.418       .  A
C1876      C1888   1.444       .  S
C1877      C1878   1.409       .  A
C1878      H1893   1.081       .  S
C1879      C1880   1.403       .  A
C1879      C1884   1.413       .  A
C1880      C1881   1.401       .  A
C1880      H1895   1.084       .  S
C1881      C1882   1.411       .  A
C1881      C1885   1.443       .  S
C1882      C1883   1.402       .  A
C1883      C1884   1.398       .  A
C1883      H1896   1.085       .  S
C1884      C1886   1.445       .  S
C1885      N1889   1.157       .  T
C1886      N1890   1.157       .  T
C1887      N1892   1.157       .  T
C1888      N1891   1.157       .  T
C1897      C1898   1.412       .  A
C1897      C1902   1.406       .  A
C1897      C1911   1.443       .  S
C1898      C1903   1.490       .  S
C1898      C1899   1.404       .  A
C1899      C1900   1.397       .  A
C1899      H1918   1.082       .  S
C1900      C1901   1.411       .  A
C1900      C1912   1.444       .  S
C1901      C1902   1.406       .  A
C1902      H1917   1.080       .  S
C1903      C1904   1.405       .  A
C1903      C1908   1.414       .  A
C1904      C1905   1.405       .  A
C1904      H1919   1.083       .  S
C1905      C1906   1.411       .  A
C1905      C1909   1.443       .  S
C1906      C1907   1.400       .  A
C1907      C1908   1.399       .  A
C1907      H1920   1.085       .  S
C1908      C1910   1.445       .  S
C1909      N1913   1.157       .  T
C1910      N1914   1.157       .  T
C1911      N1916   1.157       .  T
C1912      N1915   1.157       .  T
C1921      C1922   1.409       .  A
C1921      C1926   1.401       .  A
C1921      C1935   1.444       .  S
C1922      C1927   1.486       .  S
C1922      C1923   1.403       .  A
C1923      C1924   1.403       .  A
C1923      H1942   1.086       .  S
C1924      C1925   1.414       .  A
C1924      C1936   1.444       .  S
C1925      C1926   1.408       .  A
C1926      H1941   1.086       .  S
C1927      C1928   1.401       .  A
C1927      C1932   1.409       .  A
C1928      C1929   1.401       .  A
C1928      H1943   1.087       .  S
C1929      C1930   1.416       .  A
C1929      C1933   1.443       .  S
C1930      C1931   1.407       .  A
C1931      C1932   1.403       .  A
C1931      H1944   1.087       .  S
C1932      C1934   1.443       .  S
C1933      N1937   1.157       .  T
C1934      N1938   1.157       .  T
C1935      N1940   1.157       .  T
C1936      N1939   1.157       .  T
C1945      C1946   1.408       .  A
C1945      C1950   1.391       .  A
C1945      C1959   1.446       .  S
C1946      C1951   1.475       .  S
C1946      C1947   1.400       .  A
C1947      C1948   1.402       .  A
C1947      H1966   1.084       .  S
C1948      C1949   1.417       .  A
C1948      C1960   1.443       .  S
C1949      C1950   1.406       .  A
C1950      H1965   1.084       .  S
C1951      C1952   1.396       .  A
C1951      C1956   1.411       .  A
C1952      C1953   1.389       .  A
C1952      H1967   1.086       .  S
C1953      C1954   1.413       .  A
C1953      C1957   1.444   1_556  S
C1954      C1955   1.402       .  A
C1955      C1956   1.404       .  A
C1955      H1968   1.085       .  S
C1956      C1958   1.443       .  S
C1957      N1961   1.157       .  T
C1958      N1962   1.157       .  T
C1959      N1964   1.157       .  T
C1960      N1963   1.157       .  T
C1969      C1970   1.413       .  A
C1969      C1974   1.400       .  A
C1969      C1983   1.444       .  S
C1970      C1975   1.496       .  S
C1970      C1971   1.406       .  A
C1971      C1972   1.404       .  A
C1971      H1990   1.085       .  S
C1972      C1973   1.416       .  A
C1972      C1984   1.444       .  S
C1973      C1974   1.406       .  A
C1974      H1989   1.085       .  S
C1975      C1976   1.406       .  A
C1975      C1980   1.414       .  A
C1976      C1977   1.404       .  A
C1976      H1991   1.085       .  S
C1977      C1978   1.414       .  A
C1977      C1981   1.444       .  S
C1978      C1979   1.405       .  A
C1979      C1980   1.401       .  A
C1979      H1992   1.086       .  S
C1980      C1982   1.444       .  S
C1981      N1985   1.157       .  T
C1982      N1986   1.157       .  T
C1983      N1988   1.157       .  T
C1984      N1987   1.157       .  T
C1993      C1994   1.409       .  A
C1993      C1998   1.404       .  A
C1993      C2007   1.443       .  S
C1994      C1999   1.486       .  S
C1994      C1995   1.400       .  A
C1995      C1996   1.400       .  A
C1995      H2014   1.085       .  S
C1996      C1997   1.420       .  A
C1996      C2008   1.445       .  S
C1997      C1998   1.408       .  A
C1998      H2013   1.085       .  S
C1999      C2000   1.404       .  A
C1999      C2004   1.406       .  A
C2000      C2001   1.408       .  A
C2000      H2015   1.084       .  S
C2001      C2002   1.420       .  A
C2001      C2005   1.444       .  S
C2002      C2003   1.409       .  A
C2003      C2004   1.395       .  A
C2003      H2016   1.084       .  S
C2004      C2006   1.445       .  S
C2005      N2009   1.158       .  T
C2006      N2010   1.157       .  T
C2007      N2012   1.157       .  T
C2008      N2011   1.157       .  T
C2017      C2018   1.407       .  A
C2017      C2022   1.401       .  A
C2017      C2031   1.443       .  S
C2018      C2023   1.478       .  S
C2018      C2019   1.400       .  A
C2019      C2020   1.398       .  A
C2019      H2038   1.086       .  S
C2020      C2021   1.415       .  A
C2020      C2032   1.445       .  S
C2021      C2022   1.407       .  A
C2022      H2037   1.085       .  S
C2023      C2024   1.403       .  A
C2023      C2028   1.406       .  A
C2024      C2025   1.403       .  A
C2024      H2039   1.084       .  S
C2025      C2026   1.413       .  A
C2025      C2029   1.444       .  S
C2026      C2027   1.406       .  A
C2027      C2028   1.398       .  A
C2027      H2040   1.084       .  S
C2028      C2030   1.444       .  S
C2029      N2033   1.157       .  T
C2030      N2034   1.157       .  T
C2031      N2036   1.157       .  T
C2032      N2035   1.157       .  T
C2041      C2042   1.410       .  A
C2041      C2046   1.401       .  A
C2041      C2055   1.444       .  S
C2042      C2047   1.488       .  S
C2042      C2043   1.405       .  A
C2043      C2044   1.399       .  A
C2043      H2062   1.085       .  S
C2044      C2045   1.411       .  A
C2044      C2056   1.444       .  S
C2045      C2046   1.406       .  A
C2046      H2061   1.086       .  S
C2047      C2048   1.405       .  A
C2047      C2052   1.414       .  A
C2048      C2049   1.401       .  A
C2048      H2063   1.084       .  S
C2049      C2050   1.410       .  A
C2049      C2053   1.445       .  S
C2050      C2051   1.399       .  A
C2051      C2052   1.397       .  A
C2051      H2064   1.085       .  S
C2052      C2054   1.444       .  S
C2053      N2057   1.157       .  T
C2054      N2058   1.157       .  T
C2055      N2060   1.157       .  T
C2056      N2059   1.157       .  T
C2065      C2066   1.411       .  A
C2065      C2070   1.407       .  A
C2065      C2079   1.442       .  S
C2066      C2071   1.482       .  S
C2066      C2067   1.397       .  A
C2067      C2068   1.396       .  A
C2067      H2086   1.085       .  S
C2068      C2069   1.417       .  A
C2068      C2080   1.445       .  S
C2069      C2070   1.405       .  A
C2070      H2085   1.084       .  S
C2071      C2072   1.398       .  A
C2071      C2076   1.407       .  A
C2072      C2073   1.399       .  A
C2072      H2087   1.085       .  S
C2073      C2074   1.422       .  A
C2073      C2077   1.445       .  S
C2074      C2075   1.410       .  A
C2075      C2076   1.404       .  A
C2075      H2088   1.084       .  S
C2076      C2078   1.443       .  S
C2077      N2081   1.157       .  T
C2078      N2082   1.157       .  T
C2079      N2084   1.157       .  T
C2080      N2083   1.157   1_565  T
C2089      C2090   1.411       .  A
C2089      C2094   1.401       .  A
C2089      C2103   1.444       .  S
C2090      C2095   1.487       .  S
C2090      C2091   1.400       .  A
C2091      C2092   1.400       .  A
C2091      H2110   1.085       .  S
C2092      C2093   1.420       .  A
C2092      C2104   1.444       .  S
C2093      C2094   1.407       .  A
C2094      H2109   1.085       .  S
C2095      C2096   1.401       .  A
C2095      C2100   1.411       .  A
C2096      C2097   1.402       .  A
C2096      H2111   1.086       .  S
C2097      C2098   1.419       .  A
C2097      C2101   1.441       .  S
C2098      C2099   1.406       .  A
C2099      C2100   1.401       .  A
C2099      H2112   1.085       .  S
C2100      C2102   1.444       .  S
C2101      N2105   1.156       .  T
C2102      N2106   1.157       .  T
C2103      N2108   1.157       .  T
C2104      N2107   1.157       .  T
C2113      C2114   1.410       .  A
C2113      C2118   1.407       .  A
C2113      C2127   1.443       .  S
C2114      C2119   1.491       .  S
C2114      C2115   1.400       .  A
C2115      C2116   1.401       .  A
C2115      H2134   1.086       .  S
C2116      C2117   1.421       .  A
C2116      C2128   1.444       .  S
C2117      C2118   1.410       .  A
C2118      H2133   1.085       .  S
C2119      C2120   1.403       .  A
C2119      C2124   1.408       .  A
C2120      C2121   1.408       .  A
C2120      H2135   1.086       .  S
C2121      C2122   1.420       .  A
C2121      C2125   1.443       .  S
C2122      C2123   1.411       .  A
C2123      C2124   1.401       .  A
C2123      H2136   1.085       .  S
C2124      C2126   1.444       .  S
C2125      N2129   1.157       .  T
C2126      N2130   1.157       .  T
C2127      N2132   1.157       .  T
C2128      N2131   1.157       .  T
C2137      C2138   1.408       .  A
C2137      C2142   1.395       .  A
C2137      C2151   1.445       .  S
C2138      C2143   1.481       .  S
C2138      C2139   1.403       .  A
C2139      C2140   1.401       .  A
C2139      H2158   1.086       .  S
C2140      C2141   1.414       .  A
C2140      C2152   1.444       .  S
C2141      C2142   1.407       .  A
C2142      H2157   1.085       .  S
C2143      C2144   1.403       .  A
C2143      C2148   1.409       .  A
C2144      C2145   1.400       .  A
C2144      H2159   1.086       .  S
C2145      C2146   1.414       .  A
C2145      C2149   1.444       .  S
C2146      C2147   1.404       .  A
C2147      C2148   1.397       .  A
C2147      H2160   1.086       .  S
C2148      C2150   1.445       .  S
C2149      N2153   1.157       .  T
C2150      N2154   1.157       .  T
C2151      N2156   1.157       .  T
C2152      N2155   1.157       .  T
C2161      C2162   1.407       .  A
C2161      C2166   1.399       .  A
C2161      C2175   1.444       .  S
C2162      C2167   1.479       .  S
C2162      C2163   1.402       .  A
C2163      C2164   1.401       .  A
C2163      H2182   1.085       .  S
C2164      C2165   1.414       .  A
C2164      C2176   1.445       .  S
C2165      C2166   1.408       .  A
C2166      H2181   1.085       .  S
C2167      C2168   1.402       .  A
C2167      C2172   1.406       .  A
C2168      C2169   1.402       .  A
C2168      H2183   1.085       .  S
C2169      C2170   1.413       .  A
C2169      C2173   1.444       .  S
C2170      C2171   1.407       .  A
C2171      C2172   1.399       .  A
C2171      H2184   1.085       .  S
C2172      C2174   1.444       .  S
C2173      N2177   1.157       .  T
C2174      N2178   1.157       .  T
C2175      N2180   1.157       .  T
C2176      N2179   1.157       .  T
C2185      C2186   1.410       .  A
C2185      C2190   1.404       .  A
C2185      C2199   1.444       .  S
C2186      C2191   1.489       .  S
C2186      C2187   1.405       .  A
C2187      C2188   1.400       .  A
C2187      H2206   1.085       .  S
C2188      C2189   1.411       .  A
C2188      C2200   1.444       .  S
C2189      C2190   1.406       .  A
C2190      H2205   1.085       .  S
C2191      C2192   1.405       .  A
C2191      C2196   1.413       .  A
C2192      C2193   1.402       .  A
C2192      H2207   1.085       .  S
C2193      C2194   1.411       .  A
C2193      C2197   1.445       .  S
C2194      C2195   1.401       .  A
C2195      C2196   1.399       .  A
C2195      H2208   1.086       .  S
C2196      C2198   1.444       .  S
C2197      N2201   1.157       .  T
C2198      N2202   1.157       .  T
C2199      N2204   1.157       .  T
C2200      N2203   1.157       .  T
C2209      C2210   1.409       .  A
C2209      C2214   1.402       .  A
C2209      C2223   1.444       .  S
C2210      C2215   1.484       .  S
C2210      C2211   1.401       .  A
C2211      C2212   1.400       .  A
C2211      H2230   1.086       .  S
C2212      C2213   1.417       .  A
C2212      C2224   1.445       .  S
C2213      C2214   1.409       .  A
C2214      H2229   1.085       .  S
C2215      C2216   1.403       .  A
C2215      C2220   1.408       .  A
C2216      C2217   1.401       .  A
C2216      H2231   1.086       .  S
C2217      C2218   1.412       .  A
C2217      C2221   1.444       .  S
C2218      C2219   1.407       .  A
C2219      C2220   1.401       .  A
C2219      H2232   1.086       .  S
C2220      C2222   1.444       .  S
C2221      N2225   1.157       .  T
C2222      N2226   1.157       .  T
C2223      N2228   1.157       .  T
C2224      N2227   1.157       .  T
C2233      C2234   1.411       .  A
C2233      C2238   1.396       .  A
C2233      C2247   1.444       .  S
C2234      C2239   1.492       .  S
C2234      C2235   1.410       .  A
C2235      C2236   1.407       .  A
C2235      H2254   1.084       .  S
C2236      C2237   1.409       .  A
C2236      C2248   1.444       .  S
C2237      C2238   1.402       .  A
C2238      H2253   1.086       .  S
C2239      C2240   1.404       .  A
C2239      C2244   1.411       .  A
C2240      C2241   1.404       .  A
C2240      H2255   1.085       .  S
C2241      C2242   1.419       .  A
C2241      C2245   1.444       .  S
C2242      C2243   1.409       .  A
C2243      C2244   1.401       .  A
C2243      H2256   1.084       .  S
C2244      C2246   1.445       .  S
C2245      N2249   1.157       .  T
C2246      N2250   1.157       .  T
C2247      N2252   1.157       .  T
C2248      N2251   1.157       .  T
