geometry optimzed in LAMMPS
_audit_creation_date              2020-11-30 
_audit_creation_method            'lammps2cif' 
_symmetry_space_group_name_H-M    'P1' 
_symmetry_Int_Tables_number       1 
_symmetry_cell_setting            triclinic 
loop_ 
_symmetry_equiv_pos_as_xyz 
  x,y,z 
_cell_length_a                    34.10906850257976 
_cell_length_b                    34.18176435269375 
_cell_length_c                    51.83994904205712 
_cell_angle_alpha                 90.16361303255141 
_cell_angle_beta                  90.05755995535559 
_cell_angle_gamma                 120.92030181404061 
loop_ 
_atom_site_label 
_atom_site_type_symbol 
_atom_site_fract_x 
_atom_site_fract_y 
_atom_site_fract_z 
_atom_site_charge 
Zn1        Zn  0.25544875  0.82672732  0.07998050     1.49720
Zn2        Zn  0.25773061  0.77158120  0.12548499     1.49360
Zn3        Zn  0.18305554  0.79759572  0.12392733     1.49110
Zn4        Zn  0.17799858  0.72344682  0.08485311     1.49480
O5          O  0.21761161  0.77913376  0.10339279    -1.83350
O6          O  0.31500510  0.82943972  0.07440242    -0.73980
O7          O  0.25736017  0.79406581  0.16117735    -0.73800
O8          O  0.21444869  0.86642480  0.12399937    -0.73310
O9          O  0.31952464  0.79374131  0.10872032    -0.73990
O10         O  0.26794578  0.88718893  0.09373564    -0.73590
O11         O  0.18598206  0.78006507  0.16074898    -0.74180
O12         O  0.11486040  0.71369049  0.08534997    -0.73570
O13         O  0.23196483  0.70594001  0.13070958    -0.74320
O14         O  0.11775910  0.76822150  0.11028052    -0.73710
O15         O  0.17742715  0.66783236  0.10157811    -0.74180
O16         O  0.19638439  0.73505637  0.04689507    -0.74090
O17         O  0.22641207  0.81070901  0.04544346    -0.73880
C18         C  0.33591337  0.81421013  0.08739412     0.77910
C19         C  0.22123010  0.78612540  0.17301336     0.78400
C20         C  0.24886396  0.89699731  0.11165991     0.77360
C21         C  0.09596061  0.73423131  0.09504985     0.77740
C22         C  0.20208342  0.66862458  0.12043610     0.78870
C23         C  0.21053300  0.77215436  0.03434295     0.77920
Zn24       Zn  0.25698804  0.82783811  0.33005337     1.49720
Zn25       Zn  0.17621398  0.72669559  0.33462572     1.49360
Zn26       Zn  0.25789337  0.77025205  0.37531566     1.49110
Zn27       Zn  0.18711594  0.80224262  0.37476786     1.49480
O28         O  0.21868646  0.78093506  0.35358435    -1.83350
O29         O  0.22835652  0.81334884  0.29545995    -0.73980
O30         O  0.17318024  0.66989442  0.35101913    -0.73800
O31         O  0.32010217  0.79234306  0.35862659    -0.73310
O32         O  0.19367520  0.73732037  0.29642795    -0.73990
O33         O  0.31500960  0.82797023  0.32437126    -0.73590
O34         O  0.22935696  0.70337896  0.37996636    -0.74180
O35         O  0.18888972  0.78287429  0.41113669    -0.73570
O36         O  0.11397260  0.72015721  0.33625810    -0.74320
O37         O  0.25826783  0.79211724  0.41151211    -0.73710
O38         O  0.12154413  0.77562131  0.36229143    -0.74180
O39         O  0.22172165  0.87147330  0.37528418    -0.74090
O40         O  0.27199444  0.88920419  0.34353865    -0.73880
C41         C  0.21032752  0.77488562  0.28401615     0.77910
C42         C  0.19666086  0.66774261  0.36967062     0.78400
C43         C  0.33590541  0.81247708  0.33712921     0.77360
C44         C  0.22261899  0.78546015  0.42343096     0.77740
C45         C  0.09749499  0.74202843  0.34720142     0.78870
C46         C  0.25575137  0.90082145  0.36216642     0.77920
Zn47       Zn  0.25939422  0.47270831  0.16559727     1.49720
Zn48       Zn  0.25307864  0.41492712  0.21170823     1.49360
Zn49       Zn  0.17677895  0.43646644  0.20486328     1.49110
Zn50       Zn  0.18706191  0.36784199  0.16621151     1.49480
O51         O  0.21777474  0.42276485  0.18665523    -1.83350
O52         O  0.32091898  0.51377745  0.18331013    -0.73980
O53         O  0.22055210  0.39648231  0.24479250    -0.73800
O54         O  0.17589789  0.49145795  0.18828920    -0.73310
O55         O  0.30941577  0.47420196  0.21922234    -0.73990
O56         O  0.23252211  0.51096359  0.16060132    -0.73590
O57         O  0.19191540  0.44216990  0.24347547    -0.74180
O58         O  0.12048346  0.33049733  0.17732171    -0.73570
O59         O  0.26991048  0.37065205  0.19947432    -0.74320
O60         O  0.11469969  0.38110849  0.20197222    -0.73710
O61         O  0.21980763  0.33203387  0.16857660    -0.74180
O62         O  0.19241412  0.38743280  0.12917167    -0.74090
O63         O  0.26036844  0.45200480  0.12941409    -0.73880
C64         C  0.33268815  0.51026960  0.20617056     0.77910
C65         C  0.20497282  0.41868558  0.25610966     0.78400
C66         C  0.20113019  0.51635994  0.16978548     0.77360
C67         C  0.09731449  0.34192926  0.19147044     0.77740
C68         C  0.25415071  0.33967341  0.18229461     0.78870
C69         C  0.22585697  0.42044487  0.11738607     0.77920
Zn70       Zn  0.16753308  0.41889125  0.41398306     1.49720
Zn71       Zn  0.22526925  0.47603187  0.46034437     1.49360
Zn72       Zn  0.19370062  0.37167626  0.45583847     1.49110
Zn73       Zn  0.26679121  0.44466568  0.41660224     1.49480
O74         O  0.21402937  0.42751632  0.43716105    -1.83350
O75         O  0.17059695  0.47783740  0.40852341    -0.73980
O76         O  0.20156685  0.45009802  0.49596800    -0.73800
O77         O  0.12399616  0.33229832  0.45445005    -0.73310
O78         O  0.20627845  0.51872209  0.44349038    -0.73990
O79         O  0.10703772  0.37182272  0.42752356    -0.73590
O80         O  0.20942697  0.38947391  0.49299805    -0.74180
O81         O  0.27627530  0.39215809  0.41673931    -0.73570
O82         O  0.29263464  0.51352160  0.46612389    -0.74320
O83         O  0.22593016  0.33861806  0.44281447    -0.73710
O84         O  0.32387063  0.49898064  0.43252338    -0.74180
O85         O  0.25402798  0.45189328  0.37917280    -0.74090
O86         O  0.17906078  0.40332102  0.37918108    -0.73880
C87         C  0.18752603  0.51459047  0.42144901     0.77910
C88         C  0.20590666  0.41868859  0.00657418     0.78400
C89         C  0.09458377  0.33910779  0.44336096     0.77360
C90         C  0.25954837  0.35323006  0.42719564     0.77740
C91         C  0.32748084  0.52008456  0.45358164     0.78870
C92         C  0.21642344  0.42725892  0.36709490     0.77920
Zn93       Zn  0.55477060  0.81547511  0.50161370     1.49720
Zn94       Zn  0.52321213  0.73840669  0.04316011     1.49360
Zn95       Zn  0.58384544  0.74444313  0.49713427     1.49110
Zn96       Zn  0.62691884  0.81568934  0.04086746     1.49480
O97         O  0.57235090  0.77926810  0.02111121    -1.83350
O98         O  0.49952722  0.81503127  0.01780062    -0.73980
O99         O  0.48347358  0.67623725  0.02567077    -0.73800
O100        O  0.60032922  0.77591884  0.46332364    -0.73310
O101        O  0.48283514  0.76370947  0.04841736    -0.73990
O102        O  0.54981515  0.79843723  0.46350905    -0.73590
O103        O  0.52482441  0.68666778  0.99033819    -0.74180
O104        O  0.66586060  0.78696534  0.04041512    -0.73570
O105        O  0.54689950  0.74123680  0.07929963    -0.74320
O106        O  0.63236262  0.73260814  0.01045653    -0.73710
O107        O  0.60794661  0.81173771  0.07772797    -0.74180
O108        O  0.66077288  0.88173068  0.02849512    -0.74090
O109        O  0.60613465  0.87949839  0.00380317    -0.73880
C110        C  0.47644244  0.79332507  0.03763116     0.77910
C111        C  0.48799472  0.66404528  0.00306706     0.78400
C112        C  0.57619612  0.78861804  0.45126946     0.77360
C113        C  0.66232487  0.75303359  0.02804966     0.77740
C114        C  0.57807263  0.77743852  0.09043180     0.78870
C115        C  0.64542348  0.90137175  0.01428649     0.77920
Zn116      Zn  0.52530572  0.74193631  0.29295375     1.49720
Zn117      Zn  0.55810098  0.81761407  0.25153589     1.49360
Zn118      Zn  0.63076047  0.81739112  0.29131845     1.49110
Zn119      Zn  0.58575816  0.74585174  0.24759320     1.49480
O120        O  0.57550522  0.78175404  0.27141230    -1.83350
O121        O  0.48697422  0.76917142  0.29904407    -0.73980
O122        O  0.61081800  0.88077756  0.25295481    -0.73800
O123        O  0.61134771  0.81099135  0.32845301    -0.73310
O124        O  0.50354454  0.81896819  0.26764846    -0.73990
O125        O  0.54768771  0.74191958  0.32877370    -0.73590
O126        O  0.66375235  0.88429402  0.27958488    -0.74180
O127        O  0.63321416  0.73367709  0.26087308    -0.73570
O128        O  0.55129807  0.79876545  0.21371121    -0.74320
O129        O  0.67059944  0.78874834  0.28983561    -0.73710
O130        O  0.60110941  0.77512820  0.21327593    -0.74180
O131        O  0.52782070  0.68718055  0.24149695    -0.74090
O132        O  0.48464965  0.68098265  0.27488797    -0.73880
C133        C  0.48105896  0.79879059  0.28792694     0.77910
C134        C  0.64937318  0.90344267  0.26418528     0.78400
C135        C  0.57958040  0.77679239  0.34044622     0.77360
C136        C  0.66467966  0.75358781  0.27770517     0.77740
C137        C  0.57613580  0.78695716  0.20142775     0.78870
C138        C  0.49005643  0.66596849  0.25337474     0.77920
Zn139      Zn  0.82368462  0.19324789  0.24782095     1.49720
Zn140      Zn  0.74972925  0.22257449  0.25249526     1.49360
Zn141      Zn  0.82463396  0.26742288  0.20966355     1.49110
Zn142      Zn  0.75092526  0.16761050  0.20620669     1.49480
O143        O  0.78845363  0.21389579  0.22973930    -1.83350
O144        O  0.82356755  0.20891817  0.28511547    -0.73980
O145        O  0.77784589  0.28921461  0.25865175    -0.73800
O146        O  0.88730231  0.27677443  0.20839161    -0.73310
O147        O  0.75368488  0.19942094  0.28780745    -0.73990
O148        O  0.88798204  0.22362005  0.23264855    -0.73590
O149        O  0.82760594  0.32366060  0.22690502    -0.74180
O150        O  0.78081212  0.18017005  0.17235314    -0.73570
O151        O  0.68687223  0.20091146  0.23534413    -0.74320
O152        O  0.80251413  0.25353862  0.17217535    -0.73710
O153        O  0.69481873  0.16964958  0.19975266    -0.74180
O154        O  0.73465370  0.10691262  0.21991956    -0.74090
O155        O  0.79115282  0.12382295  0.24734148    -0.73880
C156        C  0.79012078  0.20471207  0.29839837     0.77910
C157        C  0.80776855  0.32533102  0.24749118     0.78400
C158        C  0.90778202  0.25719355  0.21704907     0.77360
C159        C  0.79176164  0.21656092  0.16009870     0.77740
C160        C  0.67294209  0.18362488  0.21284673     0.78870
C161        C  0.75397775  0.09463529  0.23634478     0.77920
Zn162      Zn  0.80478006  0.17747342  0.46076156     1.49720
Zn163      Zn  0.73281132  0.17819825  0.99931003     1.49360
Zn164      Zn  0.83464030  0.25239843  0.00264730     1.49110
Zn165      Zn  0.77935232  0.25433742  0.45634518     1.49480
O166        O  0.78690918  0.21478367  0.47934360    -1.83350
O167        O  0.77293003  0.11264898  0.47461545    -0.73980
O168        O  0.74656674  0.19613246  0.03715398    -0.73800
O169        O  0.89476765  0.26624726  0.48783327    -0.73310
O170        O  0.72055374  0.11468124  0.49897261    -0.73990
O171        O  0.87336095  0.20708944  0.46133136    -0.73590
O172        O  0.82153902  0.22231815  0.03697329    -0.74180
O173        O  0.80329700  0.31807318  0.47313027    -0.73570
O174        O  0.67725116  0.17787271  0.48320620    -0.74320
O175        O  0.83432348  0.31007279  0.50885189    -0.73710
O176        O  0.71284441  0.22878364  0.45215320    -0.74180
O177        O  0.79809920  0.24698490  0.41974952    -0.74090
O178        O  0.78972874  0.17792937  0.42347295    -0.73880
C179        C  0.73876173  0.09317541  0.48978018     0.77910
C180        C  0.78390732  0.20731227  0.04894387     0.78400
C181        C  0.90413455  0.24421602  0.47158845     0.77360
C182        C  0.82050008  0.33201419  0.49568199     0.77740
C183        C  0.67629373  0.19909064  0.46313540     0.78870
C184        C  0.79307100  0.21028684  0.40967817     0.77920
Zn185      Zn  0.74914437  0.57839912  0.08529880     1.49720
Zn186      Zn  0.81770853  0.62404793  0.04062916     1.49360
Zn187      Zn  0.82567757  0.55575169  0.07975914     1.49110
Zn188      Zn  0.74504341  0.51847440  0.03918175     1.49480
O189        O  0.78531498  0.56935548  0.06086155    -1.83350
O190        O  0.73501035  0.62547635  0.07330182    -0.73980
O191        O  0.88475786  0.66038722  0.05164886    -0.73800
O192        O  0.80881245  0.54869847  0.11829359    -0.73310
O193        O  0.78734580  0.66160061  0.04317803    -0.73990
O194        O  0.77934098  0.59377104  0.11939132    -0.73590
O195        O  0.88859449  0.61074845  0.07787012    -0.74180
O196        O  0.77494913  0.48259560  0.03169210    -0.73570
O197        O  0.81041739  0.60503740  0.50340605    -0.74320
O198        O  0.82825527  0.50273440  0.06198715    -0.73710
O199        O  0.74225441  0.54041874  0.50350725    -0.74180
O200        O  0.68420315  0.47657752  0.05785996    -0.74090
O201        O  0.69152567  0.51977954  0.09177968    -0.73880
C202        C  0.75336854  0.65643377  0.05626021     0.77910
C203        C  0.90720610  0.64916470  0.06655261     0.78400
C204        C  0.79464427  0.57143326  0.13083719     0.77360
C205        C  0.80722332  0.47960842  0.04183131     0.77740
C206        C  0.77605469  0.57287618  0.49155354     0.78870
C207        C  0.67000425  0.48218361  0.07962877     0.77920
Zn208      Zn  0.82046379  0.62258469  0.29114448     1.49720
Zn209      Zn  0.82453726  0.55356988  0.33102072     1.49360
Zn210      Zn  0.74863654  0.57709512  0.33501011     1.49110
Zn211      Zn  0.74589181  0.51814534  0.28964008     1.49480
O212        O  0.78588111  0.56820058  0.31144304    -1.83350
O213        O  0.88679397  0.65887342  0.30395394    -0.73620
O214        O  0.80469843  0.54603144  0.36886633    -0.73800
O215        O  0.73529527  0.62358688  0.32126341    -0.73310
O216        O  0.88764168  0.60862909  0.33092992    -0.73990
O217        O  0.78942263  0.66020182  0.29174461    -0.73590
O218        O  0.77959038  0.59457117  0.36899633    -0.74180
O219        O  0.68482341  0.47526755  0.30781144    -0.73570
O220        O  0.82770961  0.50049679  0.31353538    -0.74320
O221        O  0.68983090  0.51813457  0.34139688    -0.73710
O222        O  0.77499978  0.48185987  0.28314169    -0.74180
O223        O  0.74551430  0.54148033  0.25376759    -0.74090
O224        O  0.81645561  0.60185893  0.25424879    -0.73880
C225        C  0.90768023  0.64741333  0.31994998     0.77910
C226        C  0.79280744  0.57095008  0.38105244     0.78400
C227        C  0.75411251  0.65395120  0.30388323     0.77360
C228        C  0.66921660  0.48047138  0.32916110     0.77740
C229        C  0.80659837  0.47780629  0.29328397     0.78870
C230        C  0.78146650  0.57133486  0.24196647     0.77920
Zn231      Zn  0.42318909  0.16180594  0.16968847     1.49720
Zn232      Zn  0.37569350  0.18633683  0.12799573     1.49360
Zn233      Zn  0.45008030  0.26199694  0.16636505     1.49110
Zn234      Zn  0.48012297  0.21761149  0.12321579     1.49480
O235        O  0.43227694  0.20807021  0.14640208    -1.83350
O236        O  0.37673872  0.10078802  0.15597121    -0.73980
O237        O  0.34196811  0.21686184  0.14175773    -0.73800
O238        O  0.45575281  0.24891253  0.20445757    -0.73310
O239        O  0.33710737  0.11702182  0.12875599    -0.73990
O240        O  0.40740162  0.17384014  0.20426147    -0.73590
O241        O  0.39763435  0.27246838  0.16490982    -0.74180
O242        O  0.51958077  0.28442396  0.11735312    -0.73570
O243        O  0.39217559  0.20206654  0.09088444    -0.74320
O244        O  0.50634017  0.31800955  0.15024231    -0.73710
O245        O  0.45299434  0.19386532  0.08757006    -0.74180
O246        O  0.52204527  0.19765440  0.14011163    -0.74090
O247        O  0.48183099  0.16431078  0.17533085    -0.73880
C248        C  0.34430257  0.08797032  0.13974257     0.77910
C249        C  0.35712933  0.25256983  0.15576124     0.78400
C250        C  0.43178491  0.21106951  0.21639454     0.77360
C251        C  0.52770178  0.32018150  0.12949190     0.77740
C252        C  0.42174928  0.19906467  0.07735489     0.78870
C253        C  0.51819180  0.17943127  0.16223472     0.77920
Zn254      Zn  0.47584418  0.25281018  0.42161326     1.49720
Zn255      Zn  0.44581363  0.17615284  0.37893509     1.49360
Zn256      Zn  0.37117345  0.17893180  0.41572902     1.49110
Zn257      Zn  0.42273316  0.25104733  0.37362454     1.49480
O258        O  0.42861659  0.21341256  0.39790744    -1.83350
O259        O  0.51342312  0.22530293  0.42906068    -0.73980
O260        O  0.39225967  0.11205177  0.38010459    -0.73800
O261        O  0.38631948  0.18036457  0.45317909    -0.73310
O262        O  0.50026137  0.17665601  0.39707069    -0.73990
O263        O  0.44846564  0.24990667  0.45667545    -0.73590
O264        O  0.33713530  0.11306352  0.40263571    -0.74180
O265        O  0.37610364  0.26523293  0.38538573    -0.73570
O266        O  0.45446914  0.19534866  0.34063303    -0.74320
O267        O  0.33455632  0.21090739  0.41362013    -0.73710
O268        O  0.40661547  0.22122148  0.33955622    -0.74180
O269        O  0.48328500  0.30817010  0.36845699    -0.74090
O270        O  0.52022710  0.31521216  0.40514290    -0.73880
C271        C  0.52075946  0.19651050  0.41808486     0.77910
C272        C  0.35181117  0.09181330  0.38922269     0.78400
C273        C  0.41683704  0.21295741  0.46680842     0.77360
C274        C  0.34307117  0.24668343  0.40129598     0.77740
C275        C  0.43130846  0.20889645  0.32796186     0.78870
C276        C  0.51875415  0.32928218  0.38251838     0.77920
C277        C  0.44207954  0.18113556  0.28568340    -0.11490
C278        C  0.43289576  0.21091281  0.29938073     0.05520
C279        C  0.42357124  0.24098906  0.28543235    -0.06780
C280        C  0.42352855  0.24025549  0.25841582    -0.07520
C281        C  0.43191362  0.20994160  0.24482099    -0.02070
C282        C  0.44084548  0.17960581  0.25863785     0.04750
N283        N  0.44985218  0.14781520  0.24574817     0.67250
H284        H  0.44881295  0.15772686  0.29608140     0.16150
H285        H  0.41688590  0.26364838  0.24791016     0.15860
N286        N  0.41516930  0.27328709  0.29820237     0.74960
O287        O  0.48283662  0.14381000  0.25322120    -0.38490
O288        O  0.41945309  0.11686995  0.23169144    -0.38440
O289        O  0.44425433  0.30184481  0.31384603    -0.39140
O290        O  0.38243655  0.27791385  0.29093570    -0.39210
C291        C  0.41640293  0.16750171  0.03375840    -0.11490
C292        C  0.42024363  0.20300079  0.04916765     0.05520
C293        C  0.42084713  0.24073292  0.03747006    -0.06780
C294        C  0.41980561  0.24267831  0.01048746    -0.07520
C295        C  0.41634118  0.20741518  0.49499139    -0.02070
C296        C  0.41338998  0.16843287  0.00674608     0.04750
N297        N  0.40772176  0.12981780  0.49206492     0.67250
H298        H  0.41523943  0.13850510  0.04297901     0.16150
H299        H  0.42160270  0.27207736  0.50139649     0.15860
N300        N  0.42297353  0.27748861  0.05236941     0.74960
O301        O  0.39041336  0.09114709  0.50257186    -0.38490
O302        O  0.42319074  0.13443478  0.46946994    -0.38440
O303        O  0.44435694  0.28983563  0.07351912    -0.39140
O304        O  0.40631635  0.30018241  0.04340538    -0.39210
C305        C  0.62720970  0.39995745  0.34375947    -0.11490
C306        C  0.62833396  0.44140262  0.34128634     0.05520
C307        C  0.59401829  0.44639818  0.35356529    -0.06780
C308        C  0.56002936  0.41003081  0.36818290    -0.07520
C309        C  0.55954416  0.36899767  0.37107054    -0.02070
C310        C  0.59359064  0.36379130  0.35859765     0.04750
N311        N  0.59423088  0.32201916  0.36030541     0.67250
H312        H  0.65394468  0.39638031  0.33485317     0.16150
H313        H  0.53276480  0.41314864  0.37672149     0.15860
N314        N  0.59195397  0.48714084  0.35048530     0.74960
O315        O  0.61120460  0.31056754  0.34226710    -0.38490
O316        O  0.58225460  0.29881568  0.38075953    -0.38440
O317        O  0.60372787  0.50873871  0.32947812    -0.39140
O318        O  0.57336975  0.49865319  0.36754596    -0.39210
C319        C  0.79467129  0.61018154  0.42179527    -0.11490
C320        C  0.79195694  0.57193899  0.40964233     0.05520
C321        C  0.78218017  0.53365462  0.42474427    -0.06780
C322        C  0.77331620  0.53368824  0.45113059    -0.07520
C323        C  0.77701271  0.57216011  0.46321234    -0.02070
C324        C  0.78745822  0.61091627  0.44840044     0.04750
N325        N  0.78878963  0.65015833  0.45973129     0.67250
H326        H  0.80140444  0.63943392  0.41032546     0.16150
H327        H  0.76535797  0.50409608  0.46259072     0.15860
N328        N  0.78111752  0.49459935  0.41376541     0.74960
O329        O  0.81171878  0.68880137  0.44925535    -0.38490
O330        O  0.76307048  0.64554738  0.47842688    -0.38440
O331        O  0.81750825  0.49842982  0.40509932    -0.39140
O332        O  0.74718187  0.45528323  0.41779110    -0.39210
C333        C  0.75159656  0.56137939  0.17069388    -0.11490
C334        C  0.79279050  0.57055630  0.15925338     0.05520
C335        C  0.83039453  0.57995147  0.17509507    -0.06780
C336        C  0.82539924  0.57971808  0.20204507    -0.07520
C337        C  0.78388499  0.56991238  0.21348761    -0.02070
C338        C  0.74654533  0.56044331  0.19749025     0.04750
N339        N  0.70409377  0.55219585  0.20794175     0.67250
H340        H  0.72270857  0.55440269  0.15861162     0.16150
H341        H  0.85447400  0.58792753  0.21424016     0.15860
N342        N  0.87407234  0.59168488  0.16442155     0.74960
O343        O  0.68855735  0.57706093  0.20109627    -0.38490
O344        O  0.67792498  0.51498946  0.21918203    -0.38440
O345        O  0.88863711  0.61538688  0.14420213    -0.39140
O346        O  0.90052404  0.58289213  0.17679729    -0.39210
C347        C  0.55800759  0.37152058  0.09185075    -0.11490
C348        C  0.56220073  0.36453778  0.11821581     0.05520
C349        C  0.60020506  0.39840337  0.13220548    -0.06780
C350        C  0.63327473  0.43766658  0.11915219    -0.07520
C351        C  0.62995613  0.44364506  0.09250358    -0.02070
C352        C  0.59076173  0.41100492  0.07889375     0.04750
N353        N  0.58288445  0.41799045  0.05243324     0.67250
H354        H  0.52860160  0.34590095  0.08126546     0.16150
H355        H  0.66348889  0.46257636  0.12960316     0.15860
N356        N  0.60768326  0.39242551  0.15890906     0.74960
O357        O  0.55686345  0.38435555  0.03826020    -0.38490
O358        O  0.59649971  0.45770088  0.04423112    -0.38440
O359        O  0.59680119  0.35355231  0.16740123    -0.39140
O360        O  0.63054440  0.42681191  0.17325805    -0.39210
C361        C  0.82125025  0.41576705  0.04539594    -0.11490
C362        C  0.81918385  0.44766571  0.02971813     0.05520
C363        C  0.82227171  0.44434827  0.00251727    -0.06780
C364        C  0.82313944  0.40664738  0.49191426    -0.07520
C365        C  0.82245335  0.37300429  0.00763780    -0.02070
C366        C  0.82219630  0.37847892  0.03482061     0.04750
N367        N  0.81852309  0.34452833  0.05223279     0.67250
H368        H  0.81844284  0.41778181  0.06613141     0.16150
H369        H  0.82473365  0.40365224  0.47119006     0.15860
N370        N  0.82590914  0.47927009  0.48545580     0.74960
O371        O  0.84351327  0.35689548  0.07212269    -0.38490
O372        O  0.78318490  0.30524791  0.05145516    -0.38440
O373        O  0.84294490  0.51983785  0.49330422    -0.39140
O374        O  0.81877239  0.47127085  0.46159368    -0.39210
C375        C  0.59677801  0.18362234  0.46717128    -0.11490
C376        C  0.63249584  0.18943775  0.45135421     0.05520
C377        C  0.62783568  0.19071600  0.42416595    -0.06780
C378        C  0.58961515  0.19034495  0.41378333    -0.07520
C379        C  0.55576544  0.18856161  0.42975296    -0.02070
C380        C  0.55876194  0.18362944  0.45678390     0.04750
N381        N  0.52374558  0.17834810  0.47413415     0.67250
H382        H  0.59961270  0.18181452  0.48790618     0.16150
H383        H  0.58699046  0.19296128  0.39309752     0.15860
N384        N  0.66126063  0.19168307  0.40690715     0.74960
O385        O  0.50668214  0.14510449  0.48954035    -0.38490
O386        O  0.51924316  0.21203217  0.47895044    -0.38440
O387        O  0.68129753  0.17051129  0.41263124    -0.39140
O388        O  0.66720650  0.20921739  0.38478653    -0.39210
C389        C  0.75457346  0.17338791  0.34041435    -0.11490
C390        C  0.79316311  0.20552223  0.32680837     0.05520
C391        C  0.83333174  0.23637764  0.34064386    -0.06780
C392        C  0.83180039  0.23708939  0.36770069    -0.07520
C393        C  0.79270725  0.20564918  0.38130284    -0.02070
C394        C  0.75452831  0.17124252  0.36740373     0.04750
N395        N  0.71575636  0.13373510  0.37983745     0.67250
H396        H  0.72479028  0.14821350  0.32976253     0.16150
H397        H  0.86165516  0.26228654  0.37827201     0.15860
N398        N  0.87583292  0.26690678  0.32798056     0.74960
O399        O  0.67663884  0.11616616  0.36959213    -0.38490
O400        O  0.72142818  0.11279183  0.39808923    -0.38440
O401        O  0.87686705  0.28858822  0.30809221    -0.39140
O402        O  0.91311330  0.27529328  0.33804873    -0.39210
C403        C  0.76860024  0.17137532  0.11925191    -0.11490
C404        C  0.79057605  0.21445454  0.13152023     0.05520
C405        C  0.81023608  0.25390780  0.11615648    -0.06780
C406        C  0.80899327  0.24956866  0.08942319    -0.07520
C407        C  0.78502812  0.20708674  0.07722393    -0.02070
C408        C  0.76488217  0.16690647  0.09222691     0.04750
N409        N  0.74274645  0.12189514  0.08079479     0.67250
H410        H  0.75315750  0.14068928  0.13084912     0.16150
H411        H  0.82718427  0.27997951  0.07787848     0.15860
N412        N  0.83053910  0.29854962  0.12718912     0.74960
O413        O  0.73856837  0.08854134  0.09355759    -0.38490
O414        O  0.72583428  0.11456924  0.05840506    -0.38440
O415        O  0.87067533  0.31782513  0.13602530    -0.39140
O416        O  0.81070524  0.32098663  0.12499983    -0.39210
C417        C  0.82799379  0.41815902  0.29583075    -0.11490
C418        C  0.81759135  0.44544997  0.28068570     0.05520
C419        C  0.81197926  0.43746742  0.25363240    -0.06780
C420        C  0.81158457  0.39937976  0.24303508    -0.07520
C421        C  0.81745607  0.36945049  0.25862919    -0.02070
C422        C  0.82774656  0.38016015  0.28519262     0.04750
N423        N  0.83806610  0.35312412  0.30176303     0.67250
H424        H  0.83336047  0.42450229  0.31639570     0.16150
H425        H  0.80513947  0.39221055  0.22258772     0.15860
N426        N  0.80690846  0.46784360  0.23670854     0.74960
O427        O  0.87306601  0.37266823  0.31602960    -0.38490
O428        O  0.80772199  0.31243329  0.30656814    -0.38440
O429        O  0.83140772  0.51040980  0.23996756    -0.39140
O430        O  0.78222771  0.45267959  0.21674959    -0.39210
C431        C  0.62719926  0.17592441  0.17337232    -0.11490
C432        C  0.63218846  0.18125503  0.20044651     0.05520
C433        C  0.59890070  0.18501134  0.21444649    -0.06780
C434        C  0.56186023  0.18307148  0.20144689    -0.07520
C435        C  0.55700969  0.17802247  0.17440906    -0.02070
C436        C  0.59014605  0.17408876  0.16021855     0.04750
N437        N  0.58620829  0.16682926  0.13276575     0.67250
H438        H  0.65234099  0.17290782  0.16219090     0.16150
H439        H  0.53727451  0.18698047  0.21263277     0.15860
N440        N  0.60202096  0.19079058  0.24183791     0.74960
O441        O  0.62166936  0.18362346  0.11897124    -0.38490
O442        O  0.54812433  0.13872734  0.12273371    -0.38440
O443        O  0.62599296  0.23016837  0.25144579    -0.39140
O444        O  0.57589334  0.15782520  0.25619090    -0.39210
C445        C  0.66415299  0.68399125  0.28899266    -0.11490
C446        C  0.69040274  0.73119718  0.28501260     0.05520
C447        C  0.73864313  0.75347497  0.28683786    -0.06780
C448        C  0.75899355  0.72745649  0.29243803    -0.07520
C449        C  0.73228464  0.68023797  0.29675153    -0.02070
C450        C  0.68421919  0.65818769  0.29448764     0.04750
N451        N  0.65528233  0.60943034  0.29639978     0.67250
H452        H  0.62726417  0.66664742  0.28719361     0.16150
H453        H  0.79585321  0.74433129  0.29399908     0.15860
N454        N  0.76750234  0.80149948  0.28215647     0.74960
O455        O  0.61576758  0.59230557  0.30590877    -0.38490
O456        O  0.66603243  0.58357376  0.28500646    -0.38440
O457        O  0.76010515  0.82977456  0.29350081    -0.39140
O458        O  0.80451634  0.81609510  0.27003078    -0.39210
C459        C  0.68188280  0.02202621  0.24240932    -0.11490
C460        C  0.72972148  0.04593042  0.24402898     0.05520
C461        C  0.75152107  0.02301040  0.25347443    -0.06780
C462        C  0.72492842  0.97670891  0.26048765    -0.07520
C463        C  0.67696288  0.95307881  0.25878196    -0.02070
C464        C  0.65547693  0.97669848  0.25003039     0.04750
N465        N  0.60668423  0.95568311  0.24939736     0.67250
H466        H  0.66435023  0.03920110  0.23595747     0.16150
H467        H  0.74190768  0.95902596  0.26696824     0.15860
N468        N  0.80028108  0.04526438  0.25504765     0.74960
O469        O  0.58389808  0.94090863  0.26993477    -0.38490
O470        O  0.58693446  0.95643565  0.22895839    -0.38440
O471        O  0.82158974  0.07563090  0.27195894    -0.39140
O472        O  0.82058153  0.02813020  0.24355318    -0.39210
C473        C  0.68181647  0.71288846  0.05981551    -0.11490
C474        C  0.69105452  0.73454109  0.03583106     0.05520
C475        C  0.72338802  0.73357785  0.01923963    -0.06780
C476        C  0.74456924  0.70938487  0.02700246    -0.07520
C477        C  0.73349380  0.68538550  0.05049763    -0.02070
C478        C  0.70181121  0.68770464  0.06710878     0.04750
N479        N  0.68811302  0.66355237  0.09103215     0.67250
H480        H  0.65672504  0.71336340  0.07244864     0.16150
H481        H  0.76920418  0.70846229  0.01426074     0.15860
N482        N  0.73513537  0.75671256  0.49472514     0.74960
O483        O  0.69741707  0.68568138  0.11191119    -0.38490
O484        O  0.65800865  0.62165826  0.09095739    -0.38440
O485        O  0.73128598  0.79109780  0.49108672    -0.39140
O486        O  0.75298009  0.74513879  0.47724163    -0.39210
C487        C  0.67315753  0.02215209  0.50645891    -0.11490
C488        C  0.71816371  0.04445877  0.49706051     0.05520
C489        C  0.74099271  0.01956935  0.49509036    -0.06780
C490        C  0.71733429  0.97284161  0.00152066    -0.07520
C491        C  0.67198550  0.95099095  0.01017917    -0.02070
C492        C  0.65027938  0.97628038  0.01302578     0.04750
N493        N  0.60485646  0.95578825  0.02298800     0.67250
H494        H  0.65491972  0.04022737  0.50850292     0.16150
H495        H  0.73419624  0.95341667  0.99955466     0.15860
N496        N  0.78798119  0.04097265  0.48735786     0.74960
O497        O  0.59885205  0.95776201  0.04685833    -0.38490
O498        O  0.57144167  0.94185366  0.00769647    -0.38440
O499        O  0.81779917  0.07725575  0.49831631    -0.39140
O500        O  0.80081137  0.01978457  0.47298809    -0.39210
C501        C  0.61283356  0.78508610  0.41062826    -0.11490
C502        C  0.57828144  0.78968409  0.42260315     0.05520
C503        C  0.54468415  0.79053186  0.40693139    -0.06780
C504        C  0.54487190  0.78386918  0.38026248    -0.07520
C505        C  0.57893409  0.77858314  0.36864650    -0.02070
C506        C  0.61378398  0.77970487  0.38385173     0.04750
N507        N  0.64950677  0.77436153  0.37268681     0.67250
H508        H  0.63893933  0.78458621  0.42228668     0.16150
H509        H  0.51916240  0.78462424  0.36831086     0.15860
N510        N  0.51073506  0.79885643  0.41743199     0.74960
O511        O  0.68744758  0.79029315  0.38411598    -0.38490
O512        O  0.64219182  0.75047715  0.35263585    -0.38440
O513        O  0.52307606  0.83644854  0.42844605    -0.39140
O514        O  0.46949455  0.77393523  0.41065874    -0.39210
C515        C  0.53841894  0.77211540  0.13124704    -0.11490
C516        C  0.57848869  0.78067532  0.11871739     0.05520
C517        C  0.61790413  0.79234982  0.13339507    -0.06780
C518        C  0.61600176  0.79419200  0.16029256    -0.07520
C519        C  0.57599971  0.78578645  0.17294805    -0.02070
C520        C  0.53666299  0.77450520  0.15819515     0.04750
N521        N  0.49431823  0.76360994  0.17014280     0.67250
H522        H  0.50809667  0.76306246  0.11997407     0.16150
H523        H  0.64636314  0.80280612  0.17139827     0.15860
N524        N  0.65946673  0.80061178  0.12152607     0.74960
O525        O  0.47141724  0.78010408  0.16130134    -0.38490
O526        O  0.47688366  0.73313659  0.18723834    -0.38440
O527        O  0.68115115  0.83431423  0.10673959    -0.39140
O528        O  0.67898845  0.78016776  0.12976658    -0.39210
C529        C  0.01489403  0.32152563  0.43736698    -0.11490
C530        C  0.04493599  0.31044519  0.44940156     0.05520
C531        C  0.02685452  0.27452003  0.46760479    -0.06780
C532        C  0.98021124  0.25179114  0.47374843    -0.07520
C533        C  0.95127776  0.26467002  0.46248433    -0.02070
C534        C  0.96848205  0.29946052  0.44371259     0.04750
N535        N  0.93984365  0.31351421  0.43126347     0.67250
H536        H  0.02769530  0.34832196  0.42307394     0.16150
H537        H  0.96691625  0.22527771  0.48825969     0.15860
N538        N  0.05543344  0.26230113  0.48119043     0.74960
O539        O  0.95714557  0.35326866  0.42221155    -0.38490
O540        O  0.89801077  0.28541285  0.42725761    -0.38440
O541        O  0.07946072  0.28703534  0.49971283    -0.39140
O542        O  0.04830611  0.22237392  0.47901028    -0.39210
C543        C  0.25857933  0.27908406  0.42809732    -0.11490
C544        C  0.28017917  0.32514781  0.42062155     0.05520
C545        C  0.32083526  0.34350395  0.40588962    -0.06780
C546        C  0.33795566  0.31587926  0.39871874    -0.07520
C547        C  0.31730447  0.27023977  0.40654587    -0.02070
C548        C  0.27646966  0.25132870  0.42118494     0.04750
N549        N  0.25210837  0.20419776  0.42862899     0.67250
H550        H  0.22707056  0.26423987  0.43898257     0.16150
H551        H  0.36967018  0.33162661  0.38798034     0.15860
N552        N  0.34698128  0.39080171  0.39902415     0.74960
O553        O  0.23310349  0.19279638  0.45043470    -0.38490
O554        O  0.24334266  0.17355030  0.41209496    -0.38440
O555        O  0.36584299  0.42062758  0.41650704    -0.39140
O556        O  0.35881529  0.40187674  0.37586929    -0.39210
C557        C  0.39598144  0.59673585  0.45321552    -0.11490
C558        C  0.37267639  0.55335244  0.46423703     0.05520
C559        C  0.38823427  0.54541598  0.48794296    -0.06780
C560        C  0.42592327  0.58215120  0.00052669    -0.07520
C561        C  0.44839408  0.62590478  0.48978392    -0.02070
C562        C  0.43319332  0.63329938  0.46583575     0.04750
N563        N  0.45288141  0.67823292  0.45500071     0.67250
H564        H  0.38299400  0.60293154  0.43555862     0.16150
H565        H  0.43818634  0.57662813  0.01863968     0.15860
N566        N  0.36640631  0.50062282  0.49935239     0.74960
O567        O  0.45512746  0.68332241  0.43083065    -0.38490
O568        O  0.46156188  0.71178452  0.46925013    -0.38440
O569        O  0.34545043  0.46529036  0.48546387    -0.39140
O570        O  0.37175549  0.49605819  0.02303427    -0.39210
C571        C  0.98343088  0.26251238  0.22254267    -0.11490
C572        C  0.95555435  0.27421127  0.20854129     0.05520
C573        C  0.97419166  0.30251555  0.18658600    -0.06780
C574        C  0.01980979  0.32006404  0.18007257    -0.07520
C575        C  0.04814588  0.31087952  0.19496476    -0.02070
C576        C  0.02982764  0.28071132  0.21614145     0.04750
N577        N  0.05774243  0.26937983  0.23165852     0.67250
H578        H  0.96932302  0.24010532  0.23900726     0.16150
H579        H  0.03405189  0.34363349  0.16404893     0.15860
N580        N  0.94797025  0.31494413  0.17078407     0.74960
O581        O  0.04456868  0.25224947  0.25378456    -0.38490
O582        O  0.09374536  0.27283314  0.22263007    -0.38440
O583        O  0.94334810  0.34779376  0.17770348    -0.39140
O584        O  0.94129041  0.30251483  0.14745402    -0.39210
C585        C  0.25938152  0.27734865  0.15984584    -0.11490
C586        C  0.27802945  0.31414409  0.17737359     0.05520
C587        C  0.32170444  0.32884517  0.18803196    -0.06780
C588        C  0.34587776  0.30811750  0.18039162    -0.07520
C589        C  0.32812294  0.27217062  0.16238815    -0.02070
C590        C  0.28384589  0.25635405  0.15214063     0.04750
N591        N  0.26359227  0.22031939  0.13340079     0.67250
H592        H  0.22612936  0.26570890  0.15132814     0.16150
H593        H  0.37925565  0.32065003  0.18897008     0.15860
N594        N  0.34300910  0.36560623  0.20624782     0.74960
O595        O  0.22284197  0.18815879  0.13628849    -0.38490
O596        O  0.28262229  0.22530541  0.11179787    -0.38440
O597        O  0.32908253  0.35929131  0.22926625    -0.39140
O598        O  0.38056672  0.40091033  0.20071931    -0.39210
C599        C  0.24489991  0.42449673  0.29670314    -0.11490
C600        C  0.20566743  0.41921799  0.28448943     0.05520
C601        C  0.16972474  0.41607406  0.29952586    -0.06780
C602        C  0.17495683  0.42004605  0.32644763    -0.07520
C603        C  0.21487255  0.42665638  0.33862912    -0.02070
C604        C  0.25041693  0.42932352  0.32343478     0.04750
N605        N  0.29180565  0.43584538  0.33464606     0.67250
H606        H  0.27238166  0.42634699  0.28525326     0.16150
H607        H  0.14719073  0.41711134  0.33807634     0.15860
N608        N  0.12711591  0.40638904  0.28810935     0.74960
O609        O  0.30494581  0.40840329  0.32913198    -0.38490
O610        O  0.31998005  0.47389161  0.34462373    -0.38440
O611        O  0.11068718  0.37966044  0.26902790    -0.39140
O612        O  0.10281828  0.41947009  0.29914313    -0.39210
C613        C  0.21579638  0.38358054  0.07506837    -0.11490
C614        C  0.22378716  0.42196814  0.08911266     0.05520
C615        C  0.22422002  0.45854215  0.07623096    -0.06780
C616        C  0.21646831  0.45562444  0.04954282    -0.07520
C617        C  0.20906440  0.41740928  0.03517692    -0.02070
C618        C  0.20859187  0.38075239  0.04836518     0.04750
N619        N  0.19990330  0.33995241  0.03534115     0.67250
H620        H  0.21432801  0.35505052  0.08508553     0.16150
H621        H  0.21740291  0.48418303  0.03991803     0.15860
N622        N  0.23069103  0.49803550  0.08992947     0.74960
O623        O  0.22437418  0.32300604  0.04023799    -0.38490
O624        O  0.16295147  0.31626749  0.02314869    -0.38440
O625        O  0.26647948  0.52182959  0.10309189    -0.39140
O626        O  0.20503374  0.51368081  0.08517279    -0.39210
C627        C  0.41513405  0.56998952  0.20574062    -0.11490
C628        C  0.37308418  0.54906881  0.21846089     0.05520
C629        C  0.36973784  0.56639940  0.24262830    -0.06780
C630        C  0.40847580  0.60354392  0.25369922    -0.07520
C631        C  0.45097931  0.62466087  0.24121632    -0.02070
C632        C  0.45395444  0.60758844  0.21665762     0.04750
N633        N  0.49543090  0.62839924  0.20205572     0.67250
H634        H  0.41775357  0.55734524  0.18700893     0.16150
H635        H  0.40484980  0.61633885  0.27214131     0.15860
N636        N  0.32679951  0.54854534  0.25556678     0.74960
O637        O  0.51225724  0.60469103  0.19510122    -0.38490
O638        O  0.50872948  0.66615255  0.19115946    -0.38440
O639        O  0.30771192  0.50909282  0.26507892    -0.39140
O640        O  0.31332997  0.57521770  0.26231213    -0.39210
C641        C  0.25648189  0.97370204  0.36753443    -0.11490
C642        C  0.27907145  0.94923601  0.36979173     0.05520
C643        C  0.32346172  0.97082644  0.38048669    -0.06780
C644        C  0.34475567  0.01665010  0.38784311    -0.07520
C645        C  0.32323687  0.04199530  0.38472740    -0.02070
C646        C  0.27801276  0.01998695  0.37486864     0.04750
N647        N  0.25428031  0.04411370  0.37098274     0.67250
H648        H  0.22205240  0.95678220  0.35979007     0.16150
H649        H  0.37922447  0.03308745  0.39554200     0.15860
N650        N  0.34708602  0.94663632  0.38468629     0.74960
O651        O  0.23058756  0.03685110  0.35085425    -0.38490
O652        O  0.25011681  0.06598064  0.38935982    -0.38440
O653        O  0.35386399  0.92679735  0.36617319    -0.39140
O654        O  0.36757795  0.95136096  0.40579792    -0.39210
C655        C  0.03672053  0.72572265  0.31554800    -0.11490
C656        C  0.04937355  0.72754992  0.34151962     0.05520
C657        C  0.01495200  0.70793223  0.36052048    -0.06780
C658        C  0.96894514  0.68352449  0.35270370    -0.07520
C659        C  0.95632669  0.67902075  0.32654400    -0.02070
C660        C  0.99068641  0.70155445  0.30768880     0.04750
N661        N  0.98021250  0.69754109  0.28055240     0.67250
H662        H  0.06316450  0.74103673  0.30106283     0.16150
H663        H  0.94255914  0.66704832  0.36720488     0.15860
N664        N  0.02581578  0.71011163  0.38751075     0.74960
O665        O  0.00508643  0.73003201  0.26556717    -0.38490
O666        O  0.95065072  0.65968174  0.27094529    -0.38440
O667        O  0.05615141  0.74717247  0.39750857    -0.39140
O668        O  0.00046485  0.67721141  0.40214001    -0.39210
C669        C  0.21789157  0.60941888  0.37362315    -0.11490
C670        C  0.18734218  0.62365483  0.38023543     0.05520
C671        C  0.15675346  0.60224974  0.40109981    -0.06780
C672        C  0.15844057  0.56764596  0.41501067    -0.07520
C673        C  0.18974447  0.55421848  0.40860708    -0.02070
C674        C  0.21959243  0.57505426  0.38744814     0.04750
N675        N  0.25257593  0.56264193  0.38010301     0.67250
H676        H  0.24233795  0.62696948  0.35830976     0.16150
H677        H  0.13475362  0.55051453  0.43068317     0.15860
N678        N  0.12460166  0.61559896  0.40871515     0.74960
O679        O  0.26587036  0.56703747  0.35699905    -0.38490
O680        O  0.27195874  0.55169556  0.39694687    -0.38440
O681        O  0.10985137  0.63260451  0.39257681    -0.39140
O682        O  0.10773319  0.60680148  0.43111009    -0.39210
C683        C  0.38485174  0.82338082  0.29872081    -0.11490
C684        C  0.37725646  0.81526607  0.32545495     0.05520
C685        C  0.40736907  0.80678603  0.33968636    -0.06780
C686        C  0.44210905  0.80408251  0.32697986    -0.07520
C687        C  0.44812561  0.80960125  0.30006345    -0.02070
C688        C  0.42000721  0.82107613  0.28593861     0.04750
N689        N  0.42491114  0.82829367  0.25860484     0.67250
H690        H  0.36249314  0.83042483  0.28737432     0.16150
H691        H  0.46399304  0.79637687  0.33833498     0.15860
N692        N  0.40312235  0.80040239  0.36701070     0.74960
O693        O  0.39004800  0.80880246  0.24423601    -0.38490
O694        O  0.46159450  0.86080359  0.24961668    -0.38440
O695        O  0.37725441  0.76101285  0.37601719    -0.39140
O696        O  0.43177106  0.83157631  0.38167869    -0.39210
C697        C  0.33029782  0.00943901  0.14350710    -0.11490
C698        C  0.31652417  0.03849912  0.13307494     0.05520
C699        C  0.27840932  0.01958739  0.11608089    -0.06780
C700        C  0.25546958  0.97278834  0.11012187    -0.07520
C701        C  0.27034839  0.94464260  0.12020737    -0.02070
C702        C  0.30803988  0.96302293  0.13725840     0.04750
N703        N  0.32474270  0.93546756  0.14809332     0.67250
H704        H  0.35918077  0.02294404  0.15658299     0.16150
H705        H  0.22686599  0.95864916  0.09679493     0.15860
N706        N  0.26314866  0.04714141  0.10410269     0.74960
O707        O  0.36647420  0.95327982  0.15390179    -0.38490
O708        O  0.29748424  0.89443311  0.15411761    -0.38440
O709        O  0.28694471  0.07457807  0.08651532    -0.39140
O710        O  0.22212233  0.03674362  0.10675503    -0.39210
C711        C  0.97067533  0.70174619  0.09507345    -0.11490
C712        C  0.95642895  0.68026277  0.07091148     0.05520
C713        C  0.98875880  0.67998406  0.05407002    -0.06780
C714        C  0.03401307  0.69883954  0.06256434    -0.07520
C715        C  0.04808134  0.71822785  0.08729991    -0.02070
C716        C  0.01612521  0.72082858  0.10353385     0.04750
N717        N  0.02790611  0.73937171  0.12918725     0.67250
H718        H  0.94547905  0.70082962  0.10818856     0.16150
H719        H  0.05854780  0.69786526  0.04973206     0.15860
N720        N  0.97594312  0.65878358  0.02895068     0.74960
O721        O  0.01163200  0.76252366  0.13802654    -0.38490
O722        O  0.04806367  0.72657823  0.14437491    -0.38440
O723        O  0.94472561  0.65917638  0.01607229    -0.39140
O724        O  0.99869964  0.64335709  0.01848239    -0.39210
C725        C  0.25115571  0.78025882  0.49409786    -0.11490
C726        C  0.21085476  0.77171149  0.00615132     0.05520
C727        C  0.17392057  0.76679762  0.49123310    -0.06780
C728        C  0.17873876  0.77072103  0.46429789    -0.07520
C729        C  0.21949470  0.78002838  0.45197656    -0.02070
C730        C  0.25582783  0.78399582  0.46728665     0.04750
N731        N  0.29767551  0.79174844  0.45619586     0.67250
H732        H  0.27945489  0.78419185  0.00570877     0.16150
H733        H  0.15054169  0.76741791  0.45291868     0.15860
N734        N  0.13186444  0.75851413  0.00283706     0.74960
O735        O  0.33518079  0.82541911  0.46364007    -0.38490
O736        O  0.29787347  0.76027808  0.44350310    -0.38440
O737        O  0.13156323  0.77327948  0.02513886    -0.39140
O738        O  0.09514826  0.73929967  0.48997659    -0.39210
C739        C  0.25365458  0.80493835  0.24397710    -0.11490
C740        C  0.21150704  0.77527885  0.25565575     0.05520
C741        C  0.17256381  0.74836100  0.24009960    -0.06780
C742        C  0.17710619  0.75252332  0.21314609    -0.07520
C743        C  0.21933072  0.78244068  0.20145332    -0.02070
C744        C  0.25820817  0.80828695  0.21718067     0.04750
N745        N  0.30227661  0.83898122  0.20647535     0.67250
H746        H  0.28366660  0.82536280  0.25586204     0.16150
H747        H  0.14721123  0.73254072  0.20114228     0.15860
N748        N  0.12818423  0.71832448  0.25105351     0.74960
O749        O  0.32263324  0.88064928  0.21263085    -0.38490
O750        O  0.32485317  0.82315135  0.19626795    -0.38440
O751        O  0.11653721  0.72838857  0.27197125    -0.39140
O752        O  0.09858945  0.68414821  0.23842616    -0.39210
C753        C  0.15727523  0.58874067  0.13829848    -0.11490
C754        C  0.19922169  0.62682500  0.13079457     0.05520
C755        C  0.24018173  0.62810427  0.13700905    -0.06780
C756        C  0.23859711  0.59259999  0.15096495    -0.07520
C757        C  0.19718676  0.55403699  0.15828389    -0.02070
C758        C  0.15559125  0.55178637  0.15175182     0.04750
N759        N  0.11186197  0.51254299  0.15784584     0.67250
H760        H  0.12585530  0.58797171  0.13382641     0.16150
H761        H  0.27064968  0.59467555  0.15553951     0.15860
N762        N  0.28401341  0.66523214  0.12909402     0.74960
O763        O  0.07803427  0.51713246  0.16225544    -0.38490
O764        O  0.10537247  0.47284389  0.15568613    -0.38440
O765        O  0.31805266  0.67979486  0.14398253    -0.39140
O766        O  0.28990070  0.68032748  0.10634564    -0.39210
C767        C  0.43493402  0.79478088  0.07646950    -0.11490
C768        C  0.44282839  0.80312190  0.04984496     0.05520
C769        C  0.41950210  0.82117132  0.03648357    -0.06780
C770        C  0.38742898  0.82793304  0.04977532    -0.07520
C771        C  0.37753412  0.81682419  0.07611768    -0.02070
C772        C  0.40343450  0.80201181  0.08976473     0.04750
N773        N  0.39855085  0.79423777  0.11707365     0.67250
H774        H  0.45409876  0.78304745  0.08732830     0.16150
H775        H  0.36804679  0.83934708  0.03888151     0.15860
N776        N  0.42568105  0.83037368  0.00931416     0.74960
O777        O  0.39917064  0.76055678  0.12648609    -0.38490
O778        O  0.40091608  0.82457812  0.13205052    -0.38440
O779        O  0.42251370  0.80027942  0.49382664    -0.39140
O780        O  0.42700230  0.86538959  0.00043927    -0.39210
Zn781      Zn  0.25545053  0.82672610  0.57998054     1.49720
Zn782      Zn  0.25773141  0.77158010  0.62548513     1.49360
Zn783      Zn  0.18305727  0.79759578  0.62392704     1.49110
Zn784      Zn  0.17799993  0.72344642  0.58485295     1.49480
O785        O  0.21761288  0.77913305  0.60339279    -1.83350
O786        O  0.31500516  0.82943543  0.57440187    -0.73980
O787        O  0.25736168  0.79406566  0.66117732    -0.73800
O788        O  0.21445089  0.86642491  0.62399870    -0.73310
O789        O  0.31952481  0.79373791  0.60872021    -0.73990
O790        O  0.26794949  0.88718824  0.59373595    -0.73590
O791        O  0.18598382  0.78006567  0.66074880    -0.74180
O792        O  0.11486195  0.71369028  0.58534993    -0.73570
O793        O  0.23196456  0.70593897  0.63071004    -0.74320
O794        O  0.11776080  0.76822157  0.61028029    -0.73710
O795        O  0.17742822  0.66783182  0.60157777    -0.74180
O796        O  0.19638571  0.73505621  0.54689493    -0.74090
O797        O  0.22641315  0.81070881  0.54544370    -0.73880
C798        C  0.33591286  0.81420520  0.58739355     0.77910
C799        C  0.22123169  0.78612574  0.67301326     0.78400
C800        C  0.24886712  0.89699707  0.61165970     0.77360
C801        C  0.09596224  0.73423122  0.59504973     0.77740
C802        C  0.20208362  0.66862376  0.62043616     0.78870
C803        C  0.21053409  0.77215433  0.53434300     0.77920
Zn804      Zn  0.25698840  0.82783811  0.83005329     1.49720
Zn805      Zn  0.17621439  0.72669563  0.83462547     1.49360
Zn806      Zn  0.25789369  0.77025187  0.87531553     1.49110
Zn807      Zn  0.18711619  0.80224244  0.87476773     1.49480
O808        O  0.21868680  0.78093498  0.85358423    -1.83350
O809        O  0.22835697  0.81334905  0.79545986    -0.73980
O810        O  0.17318049  0.66989438  0.85101882    -0.73800
O811        O  0.32010253  0.79234290  0.85862637    -0.73310
O812        O  0.19367587  0.73732059  0.79642775    -0.73990
O813        O  0.31500992  0.82797021  0.82437111    -0.73590
O814        O  0.22935718  0.70337873  0.87996609    -0.74180
O815        O  0.18888994  0.78287405  0.91113654    -0.73570
O816        O  0.11397300  0.72015723  0.83625777    -0.74320
O817        O  0.25826795  0.79211673  0.91151211    -0.73710
O818        O  0.12154437  0.77562106  0.86229127    -0.74180
O819        O  0.22172180  0.87147312  0.87528409    -0.74090
O820        O  0.27199475  0.88920413  0.84353863    -0.73880
C821        C  0.21032820  0.77488590  0.78401601     0.77910
C822        C  0.19666104  0.66774244  0.86967032     0.78400
C823        C  0.33590573  0.81247698  0.83712898     0.77360
C824        C  0.22261906  0.78545972  0.92343089     0.77740
C825        C  0.09749530  0.74202831  0.84720117     0.78870
C826        C  0.25575156  0.90082132  0.86216637     0.77920
Zn827      Zn  0.25939437  0.47270781  0.66559730     1.49720
Zn828      Zn  0.25307876  0.41492666  0.71170819     1.49360
Zn829      Zn  0.17677912  0.43646606  0.70486333     1.49110
Zn830      Zn  0.18706181  0.36784168  0.66621146     1.49480
O831        O  0.21777483  0.42276442  0.68665525    -1.83350
O832        O  0.32091911  0.51377703  0.68331011    -0.73980
O833        O  0.22055230  0.39648192  0.74479247    -0.73800
O834        O  0.17589816  0.49145756  0.68828929    -0.73310
O835        O  0.30941606  0.47420148  0.71922228    -0.73990
O836        O  0.23252228  0.51096300  0.66060137    -0.73590
O837        O  0.19191564  0.44216956  0.74347546    -0.74180
O838        O  0.12048336  0.33049712  0.67732164    -0.73570
O839        O  0.26991023  0.37065140  0.69947417    -0.74320
O840        O  0.11469979  0.38110824  0.70197229    -0.73710
O841        O  0.21980737  0.33203343  0.66857641    -0.74180
O842        O  0.19241400  0.38743272  0.62917167    -0.74090
O843        O  0.26036860  0.45200439  0.62941411    -0.73880
C844        C  0.33268837  0.51026917  0.70617052     0.77910
C845        C  0.20497306  0.41868523  0.75610964     0.78400
C846        C  0.20113044  0.51635944  0.66978555     0.77360
C847        C  0.09731447  0.34192907  0.69147043     0.77740
C848        C  0.25415042  0.33967284  0.68229441     0.78870
C849        C  0.22585697  0.42044469  0.61738608     0.77920
Zn850      Zn  0.16753342  0.41889114  0.91398281     1.49720
Zn851      Zn  0.22526863  0.47603167  0.96034425     1.49360
Zn852      Zn  0.19370077  0.37167636  0.95583841     1.49110
Zn853      Zn  0.26679136  0.44466588  0.91660221     1.49480
O854        O  0.21402946  0.42751635  0.93716096    -1.83350
O855        O  0.17059736  0.47783722  0.90852291    -0.73980
O856        O  0.20156657  0.45009780  0.99596794    -0.73800
O857        O  0.12399634  0.33229858  0.95445002    -0.73310
O858        O  0.20627733  0.51872150  0.94349027    -0.73990
O859        O  0.10703816  0.37182293  0.92752333    -0.73590
O860        O  0.20942718  0.38947399  0.99299800    -0.74180
O861        O  0.27627578  0.39215846  0.91673944    -0.73570
O862        O  0.29263391  0.51352208  0.96612361    -0.74320
O863        O  0.22593026  0.33861818  0.94281436    -0.73710
O864        O  0.32387036  0.49898136  0.93252323    -0.74180
O865        O  0.25402817  0.45189327  0.87917274    -0.74090
O866        O  0.17906111  0.40332044  0.87918099    -0.73880
C867        C  0.18752567  0.51459007  0.92144868     0.77910
C868        C  0.20590667  0.41868865  0.50657424     0.78400
C869        C  0.09458408  0.33910816  0.94336084     0.77360
C870        C  0.25954867  0.35323032  0.92719566     0.77740
C871        C  0.32748025  0.52008544  0.95358137     0.78870
C872        C  0.21642372  0.42725860  0.86709482     0.77920
Zn873      Zn  0.55477145  0.81548035  0.00161321     1.49720
Zn874      Zn  0.52321496  0.73840250  0.54316113     1.49360
Zn875      Zn  0.58384368  0.74444599  0.99713411     1.49110
Zn876      Zn  0.62692050  0.81568750  0.54086707     1.49480
O877        O  0.57235220  0.77926460  0.52111153    -1.83350
O878        O  0.49952466  0.81502224  0.51780110    -0.73980
O879        O  0.48347679  0.67623271  0.52567191    -0.73800
O880        O  0.60032801  0.77592158  0.96332350    -0.73310
O881        O  0.48283607  0.76370313  0.54841911    -0.73990
O882        O  0.54981548  0.79844199  0.96350854    -0.73590
O883        O  0.52482630  0.68666466  0.49033856    -0.74180
O884        O  0.66586339  0.78696480  0.54041456    -0.73570
O885        O  0.54690468  0.74123409  0.57930023    -0.74320
O886        O  0.63236506  0.73260637  0.51045662    -0.73710
O887        O  0.60794928  0.81173652  0.57772774    -0.74180
O888        O  0.66077260  0.88172842  0.52849407    -0.74090
O889        O  0.60613205  0.87949430  0.50380350    -0.73880
C890        C  0.47644107  0.79331661  0.53763208     0.77910
C891        C  0.48799715  0.66404152  0.50306781     0.78400
C892        C  0.57619565  0.78862147  0.95126914     0.77360
C893        C  0.66232774  0.75303280  0.52804942     0.77740
C894        C  0.57807695  0.77743691  0.59043198     0.78870
C895        C  0.64542154  0.90136865  0.51428601     0.77920
Zn896      Zn  0.52530591  0.74193621  0.79295356     1.49720
Zn897      Zn  0.55810146  0.81761389  0.75153559     1.49360
Zn898      Zn  0.63076069  0.81739108  0.79131843     1.49110
Zn899      Zn  0.58575856  0.74585145  0.74759339     1.49480
O900        O  0.57550554  0.78175396  0.77141223    -1.83350
O901        O  0.48697447  0.76917139  0.79904366    -0.73980
O902        O  0.61081824  0.88077748  0.75295479    -0.73800
O903        O  0.61134757  0.81099142  0.82845288    -0.73310
O904        O  0.50354452  0.81896773  0.76764784    -0.73990
O905        O  0.54768757  0.74191966  0.82877362    -0.73590
O906        O  0.66375256  0.88429395  0.77958489    -0.74180
O907        O  0.63321398  0.73367650  0.76087369    -0.73570
O908        O  0.55130000  0.79876557  0.71371085    -0.74320
O909        O  0.67059975  0.78874839  0.78983579    -0.73710
O910        O  0.60111139  0.77512837  0.71327634    -0.74180
O911        O  0.52782096  0.68718047  0.74149677    -0.74090
O912        O  0.48464989  0.68098252  0.77488778    -0.73880
C913        C  0.48105907  0.79879036  0.78792641     0.77910
C914        C  0.64937336  0.90344262  0.76418532     0.78400
C915        C  0.57958012  0.77679261  0.84044611     0.77360
C916        C  0.66467968  0.75358751  0.77770563     0.77740
C917        C  0.57613827  0.78695748  0.70142777     0.78870
C918        C  0.49005666  0.66596840  0.75337453     0.77920
Zn919      Zn  0.82368470  0.19324791  0.74782095     1.49720
Zn920      Zn  0.74972947  0.22257455  0.75249531     1.49360
Zn921      Zn  0.82463393  0.26742278  0.70966342     1.49110
Zn922      Zn  0.75092508  0.16761036  0.70620684     1.49480
O923        O  0.78845369  0.21389578  0.72973928    -1.83350
O924        O  0.82356786  0.20891842  0.78511546    -0.73980
O925        O  0.77784620  0.28921463  0.75865177    -0.73800
O926        O  0.88730229  0.27677438  0.70839155    -0.73310
O927        O  0.75368517  0.19942109  0.78780749    -0.73990
O928        O  0.88798204  0.22362000  0.73264850    -0.73590
O929        O  0.82760589  0.32366056  0.72690486    -0.74180
O930        O  0.78081162  0.18016953  0.67235324    -0.73570
O931        O  0.68687242  0.20091161  0.73534432    -0.74320
O932        O  0.80251419  0.25353826  0.67217516    -0.73710
O933        O  0.69481863  0.16964956  0.69975286    -0.74180
O934        O  0.73465351  0.10691257  0.71991981    -0.74090
O935        O  0.79115286  0.12382297  0.74734157    -0.73880
C936        C  0.79012115  0.20471240  0.79839838     0.77910
C937        C  0.80776871  0.32533102  0.74749112     0.78400
C938        C  0.90778200  0.25719351  0.71704902     0.77360
C939        C  0.79176128  0.21656031  0.66009866     0.77740
C940        C  0.67294215  0.18362500  0.71284695     0.78870
C941        C  0.75397768  0.09463528  0.73634498     0.77920
Zn942      Zn  0.80478085  0.17747565  0.96076160     1.49720
Zn943      Zn  0.73281047  0.17819610  0.49931001     1.49360
Zn944      Zn  0.83463969  0.25239615  0.50264731     1.49110
Zn945      Zn  0.77935261  0.25433919  0.95634504     1.49480
O946        O  0.78690988  0.21478587  0.97934358    -1.83350
O947        O  0.77293157  0.11265149  0.97461567    -0.73980
O948        O  0.74656621  0.19613021  0.53715399    -0.73800
O949        O  0.89476833  0.26624948  0.98783338    -0.73310
O950        O  0.72055538  0.11468378  0.99897288    -0.73990
O951        O  0.87336156  0.20709172  0.96133141    -0.73590
O952        O  0.82153849  0.22231581  0.53697325    -0.74180
O953        O  0.80329693  0.31807495  0.97313012    -0.73570
O954        O  0.67725172  0.17787407  0.98320616    -0.74320
O955        O  0.83432384  0.31007499  0.00885170    -0.73710
O956        O  0.71284457  0.22878485  0.95215303    -0.74180
O957        O  0.79809966  0.24698661  0.91974940    -0.74090
O958        O  0.78972936  0.17793117  0.92347302    -0.73880
C959        C  0.73876353  0.09317803  0.98978055     0.77910
C960        C  0.78390685  0.20731008  0.54894387     0.78400
C961        C  0.90413517  0.24421819  0.97158856     0.77360
C962        C  0.82050012  0.33201613  0.99568181     0.77740
C963        C  0.67629403  0.19909172  0.96313530     0.78870
C964        C  0.79307155  0.21028851  0.90967815     0.77920
Zn965      Zn  0.74914604  0.57839824  0.58529887     1.49720
Zn966      Zn  0.81771027  0.62404663  0.54062920     1.49360
Zn967      Zn  0.82567895  0.55575046  0.57975932     1.49110
Zn968      Zn  0.74504466  0.51847334  0.53918190     1.49480
O969        O  0.78531648  0.56935432  0.56086167    -1.83350
O970        O  0.73501262  0.62547579  0.57330190    -0.73980
O971        O  0.88475947  0.66038570  0.55164882    -0.73800
O972        O  0.80881364  0.54869720  0.61829377    -0.73310
O973        O  0.78734828  0.66159982  0.54317817    -0.73990
O974        O  0.77934263  0.59377017  0.61939135    -0.73590
O975        O  0.88859598  0.61074721  0.57787037    -0.74180
O976        O  0.77495014  0.48259434  0.53169226    -0.73570
O977        O  0.81041598  0.60503858  0.00340602    -0.74320
O978        O  0.82825640  0.50273307  0.56198725    -0.73710
O979        O  0.74225318  0.54041971  0.00350709    -0.74180
O980        O  0.68420429  0.47657674  0.55786009    -0.74090
O981        O  0.69152705  0.51977893  0.59177977    -0.73880
C982        C  0.75337115  0.65643327  0.55626035     0.77910
C983        C  0.90720763  0.64916334  0.56655272     0.78400
C984        C  0.79464559  0.57143218  0.63083730     0.77360
C985        C  0.80722431  0.47960708  0.54183143     0.77740
C986        C  0.77605352  0.57287718  0.99155343     0.78870
C987        C  0.67000542  0.48218301  0.57962887     0.77920
Zn988      Zn  0.82046396  0.62258455  0.79114452     1.49720
Zn989      Zn  0.82453740  0.55356977  0.83102082     1.49360
Zn990      Zn  0.74863665  0.57709490  0.83501008     1.49110
Zn991      Zn  0.74589196  0.51814521  0.78964010     1.49480
O992        O  0.78588128  0.56820042  0.81144307    -1.83350
O993        O  0.88679412  0.65887325  0.80395395    -0.73620
O994        O  0.80469858  0.54603156  0.86886647    -0.73800
O995        O  0.73529537  0.62358654  0.82126340    -0.73310
O996        O  0.88764186  0.60862896  0.83092995    -0.73990
O997        O  0.78942280  0.66020168  0.79174466    -0.73590
O998        O  0.77959052  0.59457128  0.86899624    -0.74180
O999        O  0.68482351  0.47526741  0.80781141    -0.73570
O1000       O  0.82770968  0.50049660  0.81353550    -0.74320
O1001       O  0.68983105  0.51813434  0.84139690    -0.73710
O1002       O  0.77499992  0.48185976  0.78314177    -0.74180
O1003       O  0.74551458  0.54148016  0.75376757    -0.74090
O1004       O  0.81645587  0.60185879  0.75424885    -0.73880
C1005       C  0.90768041  0.64741317  0.81994997     0.77910
C1006       C  0.79280756  0.57095029  0.88105246     0.78400
C1007       C  0.75411263  0.65395096  0.80388328     0.77360
C1008       C  0.66921671  0.48047119  0.82916109     0.77740
C1009       C  0.80659848  0.47780615  0.79328407     0.78870
C1010       C  0.78146686  0.57133465  0.74196650     0.77920
Zn1011     Zn  0.42318926  0.16180618  0.66968859     1.49720
Zn1012     Zn  0.37569346  0.18633630  0.62799572     1.49360
Zn1013     Zn  0.45008014  0.26199694  0.66636489     1.49110
Zn1014     Zn  0.48012305  0.21761139  0.62321584     1.49480
O1015       O  0.43227698  0.20807016  0.64640205    -1.83350
O1016       O  0.37673957  0.10078807  0.65597133    -0.73980
O1017       O  0.34196765  0.21686094  0.64175770    -0.73800
O1018       O  0.45575234  0.24891272  0.70445749    -0.73310
O1019       O  0.33710800  0.11702120  0.62875589    -0.73990
O1020       O  0.40740118  0.17384032  0.70426140    -0.73590
O1021       O  0.39763409  0.27246811  0.66490938    -0.74180
O1022       O  0.51958095  0.28442385  0.61735314    -0.73570
O1023       O  0.39217560  0.20206621  0.59088447    -0.74320
O1024       O  0.50634010  0.31800954  0.65024218    -0.73710
O1025       O  0.45299447  0.19386517  0.58757011    -0.74180
O1026       O  0.52204525  0.19765426  0.64011178    -0.74090
O1027       O  0.48183125  0.16431145  0.67533121    -0.73880
C1028       C  0.34430359  0.08797002  0.63974255     0.77910
C1029       C  0.35712894  0.25256922  0.65576097     0.78400
C1030       C  0.43178435  0.21106971  0.71639447     0.77360
C1031       C  0.52770189  0.32018143  0.62949185     0.77740
C1032       C  0.42174937  0.19906446  0.57735494     0.78870
C1033       C  0.51819192  0.17943157  0.66223501     0.77920
Zn1034     Zn  0.47584402  0.25281003  0.92161316     1.49720
Zn1035     Zn  0.44581348  0.17615277  0.87893493     1.49360
Zn1036     Zn  0.37117331  0.17893167  0.91572892     1.49110
Zn1037     Zn  0.42273308  0.25104728  0.87362449     1.49480
O1038       O  0.42861644  0.21341243  0.89790734    -1.83350
O1039       O  0.51342290  0.22530274  0.92906052    -0.73980
O1040       O  0.39225955  0.11205168  0.88010445    -0.73800
O1041       O  0.38631934  0.18036444  0.95317901    -0.73310
O1042       O  0.50026131  0.17665597  0.89707048    -0.73990
O1043       O  0.44846552  0.24990652  0.95667536    -0.73590
O1044       O  0.33713519  0.11306338  0.90263562    -0.74180
O1045       O  0.37610372  0.26523298  0.88538575    -0.73570
O1046       O  0.45446883  0.19534864  0.84063287    -0.74320
O1047       O  0.33455621  0.21090730  0.91362004    -0.73710
O1048       O  0.40661516  0.22122147  0.83955620    -0.74180
O1049       O  0.48328496  0.30816996  0.86845689    -0.74090
O1050       O  0.52022701  0.31521200  0.90514281    -0.73880
C1051       C  0.52075933  0.19651040  0.91808467     0.77910
C1052       C  0.35181107  0.09181319  0.88922258     0.78400
C1053       C  0.41683691  0.21295729  0.96680833     0.77360
C1054       C  0.34307119  0.24668345  0.90129595     0.77740
C1055       C  0.43130809  0.20889644  0.82796177     0.78870
C1056       C  0.51875411  0.32928201  0.88251829     0.77920
C1057       C  0.44207869  0.18113540  0.78568326    -0.11490
C1058       C  0.43289528  0.21091284  0.79938064     0.05520
C1059       C  0.42357093  0.24098928  0.78543233    -0.06780
C1060       C  0.42352823  0.24025582  0.75841580    -0.07520
C1061       C  0.43191298  0.20994176  0.74482091    -0.02070
C1062       C  0.44084447  0.17960567  0.75863772     0.04750
N1063       N  0.44985053  0.14781467  0.74574797     0.67250
H1064       H  0.44881188  0.15772649  0.79608121     0.16150
H1065       H  0.41688578  0.26364888  0.74791018     0.15860
N1066       N  0.41516911  0.27328733  0.79820243     0.74960
O1067       O  0.48283509  0.14380941  0.75322067    -0.38490
O1068       O  0.41945076  0.11686913  0.73169169    -0.38440
O1069       O  0.44425418  0.30184496  0.81384609    -0.39140
O1070       O  0.38243633  0.27791412  0.79093585    -0.39210
C1071       C  0.41640303  0.16750163  0.53375842    -0.11490
C1072       C  0.42024379  0.20300069  0.54916771     0.05520
C1073       C  0.42084738  0.24073291  0.53747016    -0.06780
C1074       C  0.41980586  0.24267837  0.51048758    -0.07520
C1075       C  0.41634101  0.20741511  0.99499132    -0.02070
C1076       C  0.41339008  0.16843287  0.50674611     0.04750
N1077       N  0.40772172  0.12981779  0.99206493     0.67250
H1078       H  0.41523946  0.13850497  0.54297900     0.16150
H1079       H  0.42160240  0.27207725  0.00139634     0.15860
N1080       N  0.42297386  0.27748859  0.55236957     0.74960
O1081       O  0.39041337  0.09114711  0.00257191    -0.38490
O1082       O  0.42319067  0.13443472  0.96946994    -0.38440
O1083       O  0.44435723  0.28983547  0.57351930    -0.39140
O1084       O  0.40631678  0.30018250  0.54340558    -0.39210
C1085       C  0.62720974  0.39995724  0.84375943    -0.11490
C1086       C  0.62833404  0.44140243  0.84128631     0.05520
C1087       C  0.59401835  0.44639800  0.85356522    -0.06780
C1088       C  0.56002938  0.41003064  0.86818281    -0.07520
C1089       C  0.55954415  0.36899748  0.87107045    -0.02070
C1090       C  0.59359063  0.36379108  0.85859758     0.04750
N1091       N  0.59423082  0.32201892  0.86030533     0.67250
H1092       H  0.65394473  0.39638009  0.83485314     0.16150
H1093       H  0.53276483  0.41314848  0.87672139     0.15860
N1094       N  0.59195405  0.48714067  0.85048521     0.74960
O1095       O  0.61120459  0.31056732  0.84226704    -0.38490
O1096       O  0.58225441  0.29881536  0.88075942    -0.38440
O1097       O  0.60372800  0.50873852  0.82947802    -0.39140
O1098       O  0.57336977  0.49865301  0.86754583    -0.39210
C1099       C  0.79467148  0.61018221  0.92179511    -0.11490
C1100       C  0.79195692  0.57193943  0.90964234     0.05520
C1101       C  0.78217958  0.53365502  0.92474440    -0.06780
C1102       C  0.77331526  0.53368886  0.95113066    -0.07520
C1103       C  0.77701193  0.57216095  0.96321224    -0.02070
C1104       C  0.78745800  0.61091713  0.94840020     0.04750
N1105       N  0.78878955  0.65015940  0.95973084     0.67250
H1106       H  0.80140504  0.63943462  0.91032518     0.16150
H1107       H  0.76535661  0.50409668  0.96259089     0.15860
N1108       N  0.78111661  0.49459948  0.91376571     0.74960
O1109       O  0.81171913  0.68880237  0.94925488    -0.38490
O1110       O  0.76307009  0.64554872  0.97842621    -0.38440
O1111       O  0.81750718  0.49842959  0.90509962    -0.39140
O1112       O  0.74718081  0.45528351  0.91779152    -0.39210
C1113       C  0.75159745  0.56137829  0.67069379    -0.11490
C1114       C  0.79279154  0.57055525  0.65925347     0.05520
C1115       C  0.83039551  0.57995081  0.67509532    -0.06780
C1116       C  0.82540001  0.57971774  0.70204529    -0.07520
C1117       C  0.78388560  0.56991198  0.71348766    -0.02070
C1118       C  0.74654601  0.56044256  0.69749013     0.04750
N1119       N  0.70409436  0.55219519  0.70794144     0.67250
H1120       H  0.72270953  0.55440137  0.65861140     0.16150
H1121       H  0.85447471  0.58792750  0.71424050     0.15860
N1122       N  0.87407347  0.59168430  0.66442198     0.74960
O1123       O  0.68855797  0.57706017  0.70109569    -0.38490
O1124       O  0.67792550  0.51498892  0.71918181    -0.38440
O1125       O  0.88863823  0.61538592  0.64420243    -0.39140
O1126       O  0.90052525  0.58289200  0.67679798    -0.39210
C1127       C  0.55800808  0.37152059  0.59185074    -0.11490
C1128       C  0.56220103  0.36453767  0.61821581     0.05520
C1129       C  0.60020545  0.39840304  0.63220552    -0.06780
C1130       C  0.63327542  0.43766612  0.61915226    -0.07520
C1131       C  0.62995704  0.44364467  0.59250364    -0.02070
C1132       C  0.59076254  0.41100480  0.57889376     0.04750
N1133       N  0.58288547  0.41799049  0.55243324     0.67250
H1134       H  0.52860202  0.34590113  0.58126542     0.16150
H1135       H  0.66348964  0.46257570  0.62960326     0.15860
N1136       N  0.60768341  0.39242509  0.65890913     0.74960
O1137       O  0.55686421  0.38435572  0.53826020    -0.38490
O1138       O  0.59650122  0.45770102  0.54423112    -0.38440
O1139       O  0.59680094  0.35355180  0.66740133    -0.39140
O1140       O  0.63054468  0.42681144  0.67325813    -0.39210
C1141       C  0.82125098  0.41576556  0.54539609    -0.11490
C1142       C  0.81918464  0.44766423  0.52971826     0.05520
C1143       C  0.82227224  0.44434659  0.50251739    -0.06780
C1144       C  0.82313911  0.40664917  0.99191411    -0.07520
C1145       C  0.82245360  0.37300248  0.50763798    -0.02070
C1146       C  0.82219670  0.37847723  0.53482079     0.04750
N1147       N  0.81852316  0.34452653  0.55223301     0.67250
H1148       H  0.81844369  0.41778045  0.56613156     0.16150
H1149       H  0.82473346  0.40365414  0.97118991     0.15860
N1150       N  0.82590877  0.47927189  0.98545573     0.74960
O1151       O  0.84351300  0.35689355  0.57212305    -0.38490
O1152       O  0.78318487  0.30524618  0.55145528    -0.38440
O1153       O  0.84294426  0.51983954  0.99330427    -0.39140
O1154       O  0.81877254  0.47127290  0.96159356    -0.39210
C1155       C  0.59677821  0.18362307  0.96717119    -0.11490
C1156       C  0.63249597  0.18943831  0.95135412     0.05520
C1157       C  0.62783557  0.19071593  0.92416585    -0.06780
C1158       C  0.58961493  0.19034462  0.91378319    -0.07520
C1159       C  0.55576533  0.18856156  0.92975280    -0.02070
C1160       C  0.55876200  0.18362982  0.95678377     0.04750
N1161       N  0.52374566  0.17834855  0.97413402     0.67250
H1162       H  0.59961306  0.18181566  0.98790611     0.16150
H1163       H  0.58699008  0.19296057  0.89309735     0.15860
N1164       N  0.66126038  0.19168258  0.90690710     0.74960
O1165       O  0.50668222  0.14510496  0.98954023    -0.38490
O1166       O  0.51924337  0.21203269  0.97895032    -0.38440
O1167       O  0.68129759  0.17051124  0.91263152    -0.39140
O1168       O  0.66720581  0.20921603  0.88478626    -0.39210
C1169       C  0.75457408  0.17338857  0.84041443    -0.11490
C1170       C  0.79316362  0.20552286  0.82680837     0.05520
C1171       C  0.83333221  0.23637861  0.84064378    -0.06780
C1172       C  0.83180085  0.23709077  0.86770062    -0.07520
C1173       C  0.79270779  0.20565058  0.88130284    -0.02070
C1174       C  0.75452899  0.17124354  0.86740382     0.04750
N1175       N  0.71575726  0.13373604  0.87983763     0.67250
H1176       H  0.72479096  0.14821388  0.82976268     0.16150
H1177       H  0.86165556  0.26228817  0.87827187     0.15860
N1178       N  0.87583336  0.26690765  0.82798043     0.74960
O1179       O  0.67663968  0.11616676  0.86959236    -0.38490
O1180       O  0.72142942  0.11279292  0.89808937    -0.38440
O1181       O  0.87686743  0.28858861  0.80809187    -0.39140
O1182       O  0.91311378  0.27529445  0.83804869    -0.39210
C1183       C  0.76859926  0.17137407  0.61925208    -0.11490
C1184       C  0.79057544  0.21445347  0.63152020     0.05520
C1185       C  0.81023599  0.25390648  0.61615627    -0.06780
C1186       C  0.80899344  0.24956699  0.58942301    -0.07520
C1187       C  0.78502780  0.20708491  0.57722393    -0.02070
C1188       C  0.76488132  0.16690485  0.59222710     0.04750
N1189       N  0.74274531  0.12189333  0.58079519     0.67250
H1190       H  0.75315619  0.14068821  0.63084944     0.16150
H1191       H  0.82718478  0.27997759  0.57787819     0.15860
N1192       N  0.83053912  0.29854843  0.62718873     0.74960
O1193       O  0.73856681  0.08853959  0.59355824    -0.38490
O1194       O  0.72583351  0.11456727  0.55840536    -0.38440
O1195       O  0.87067723  0.31782599  0.63602223    -0.39140
O1196       O  0.81070319  0.32098375  0.62500132    -0.39210
C1197       C  0.82799390  0.41815887  0.79583078    -0.11490
C1198       C  0.81759148  0.44544986  0.78068576     0.05520
C1199       C  0.81197942  0.43746740  0.75363245    -0.06780
C1200       C  0.81158478  0.39937979  0.74303508    -0.07520
C1201       C  0.81745627  0.36945049  0.75862916    -0.02070
C1202       C  0.82774670  0.38016005  0.78519260     0.04750
N1203       N  0.83806620  0.35312397  0.80176299     0.67250
H1204       H  0.83336055  0.42450206  0.81639573     0.16150
H1205       H  0.80513970  0.39221065  0.72258772     0.15860
N1206       N  0.80690865  0.46784363  0.73670863     0.74960
O1207       O  0.87306621  0.37266804  0.81602949    -0.38490
O1208       O  0.80772195  0.31243325  0.80656822    -0.38440
O1209       O  0.83140798  0.51040982  0.73996768    -0.39140
O1210       O  0.78222787  0.45267968  0.71674969    -0.39210
C1211       C  0.62719926  0.17592454  0.67337258    -0.11490
C1212       C  0.63218856  0.18125529  0.70044677     0.05520
C1213       C  0.59890087  0.18501172  0.71444677    -0.06780
C1214       C  0.56186038  0.18307183  0.70144718    -0.07520
C1215       C  0.55700979  0.17802275  0.67440935    -0.02070
C1216       C  0.59014604  0.17408888  0.66021884     0.04750
N1217       N  0.58620814  0.16682917  0.63276606     0.67250
H1218       H  0.65234090  0.17290783  0.66219115     0.16150
H1219       H  0.53727473  0.18698093  0.71263306     0.15860
N1220       N  0.60202123  0.19079112  0.74183818     0.74960
O1221       O  0.62166913  0.18362335  0.61897149    -0.38490
O1222       O  0.54812416  0.13872703  0.62273412    -0.38440
O1223       O  0.62599486  0.23016876  0.75144598    -0.39140
O1224       O  0.57589180  0.15782659  0.75619118    -0.39210
C1225       C  0.66415304  0.68399103  0.78899319    -0.11490
C1226       C  0.69040276  0.73119695  0.78501311     0.05520
C1227       C  0.73864316  0.75347473  0.78683819    -0.06780
C1228       C  0.75899364  0.72745625  0.79243820    -0.07520
C1229       C  0.73228475  0.68023772  0.79675168    -0.02070
C1230       C  0.68421927  0.65818745  0.79448796     0.04750
N1231       N  0.65528242  0.60943009  0.79640003     0.67250
H1232       H  0.62726420  0.66664720  0.78719426     0.16150
H1233       H  0.79585331  0.74433105  0.79399913     0.15860
N1234       N  0.76750230  0.80149923  0.78215678     0.74960
O1235       O  0.61576772  0.59230528  0.80590910    -0.38490
O1236       O  0.66603244  0.58357358  0.78500655    -0.38440
O1237       O  0.76010548  0.82977431  0.79350142    -0.39140
O1238       O  0.80451600  0.81609481  0.77003078    -0.39210
C1239       C  0.68188278  0.02202620  0.74240960    -0.11490
C1240       C  0.72972146  0.04593044  0.74402920     0.05520
C1241       C  0.75152112  0.02301043  0.75347456    -0.06780
C1242       C  0.72492853  0.97670892  0.76048775    -0.07520
C1243       C  0.67696299  0.95307878  0.75878209    -0.02070
C1244       C  0.65547697  0.97669843  0.75003061     0.04750
N1245       N  0.60668427  0.95568297  0.74939759     0.67250
H1246       H  0.66435015  0.03920106  0.73595781     0.16150
H1247       H  0.74190784  0.95902597  0.76696827     0.15860
N1248       N  0.80028114  0.04526443  0.75504772     0.74960
O1249       O  0.58389813  0.94090852  0.76993500    -0.38490
O1250       O  0.58693444  0.95643531  0.72895858    -0.38440
O1251       O  0.82158986  0.07563097  0.77195899    -0.39140
O1252       O  0.82058156  0.02813027  0.74355321    -0.39210
C1253       C  0.68181968  0.71288846  0.55981552    -0.11490
C1254       C  0.69105778  0.73454092  0.53583102     0.05520
C1255       C  0.72339140  0.73357772  0.51923967    -0.06780
C1256       C  0.74457258  0.70938478  0.52700262    -0.07520
C1257       C  0.73349689  0.68538537  0.55049779    -0.02070
C1258       C  0.70181436  0.68770467  0.56710889     0.04750
N1259       N  0.68811608  0.66355250  0.59103228     0.67250
H1260       H  0.65672817  0.71336341  0.57244857     0.16150
H1261       H  0.76920757  0.70846216  0.51426098     0.15860
N1262       N  0.73513192  0.75671279  0.99472512     0.74960
O1263       O  0.69742069  0.68568160  0.61191131    -0.38490
O1264       O  0.65801123  0.62165853  0.59095759    -0.38440
O1265       O  0.73128291  0.79109829  0.99108687    -0.39140
O1266       O  0.75297623  0.74513883  0.97724147    -0.39210
C1267       C  0.67316015  0.02215519  0.00646016    -0.11490
C1268       C  0.71816595  0.04446163  0.99706121     0.05520
C1269       C  0.74099488  0.01957215  0.99509077    -0.06780
C1270       C  0.71733200  0.97283876  0.50152012    -0.07520
C1271       C  0.67198288  0.95098780  0.51017812    -0.02070
C1272       C  0.65027648  0.97627709  0.51302426     0.04750
N1273       N  0.60485325  0.95578485  0.52298604     0.67250
H1274       H  0.65492241  0.04023049  0.00850444     0.16150
H1275       H  0.73419423  0.95341403  0.49955452     0.15860
N1276       N  0.78798309  0.04097531  0.98735773     0.74960
O1277       O  0.59884832  0.95776352  0.54685587    -0.38490
O1278       O  0.57143861  0.94184653  0.50769405    -0.38440
O1279       O  0.81780147  0.07725858  0.99831586    -0.39140
O1280       O  0.80081276  0.01978697  0.97298781    -0.39210
C1281       C  0.61283319  0.78508855  0.91062825    -0.11490
C1282       C  0.57828093  0.78968670  0.92260284     0.05520
C1283       C  0.54468337  0.79053347  0.90693085    -0.06780
C1284       C  0.54487114  0.78386990  0.88026203    -0.07520
C1285       C  0.57893352  0.77858380  0.86864637    -0.02070
C1286       C  0.61378354  0.77970628  0.88385182     0.04750
N1287       N  0.64950637  0.77436263  0.87268724     0.67250
H1288       H  0.63893912  0.78458932  0.92228687     0.16150
H1289       H  0.51916150  0.78462432  0.86831022     0.15860
N1290       N  0.51073387  0.79885773  0.91743111     0.74960
O1291       O  0.68744712  0.79029450  0.88411650    -0.38490
O1292       O  0.64219146  0.75047765  0.85263655    -0.38440
O1293       O  0.52307435  0.83645017  0.92844462    -0.39140
O1294       O  0.46949339  0.77393573  0.91065801    -0.39210
C1295       C  0.53842337  0.77211550  0.63124680    -0.11490
C1296       C  0.57849316  0.78067466  0.61871752     0.05520
C1297       C  0.61790835  0.79234915  0.63339553    -0.06780
C1298       C  0.61600537  0.79419183  0.66029301    -0.07520
C1299       C  0.57600316  0.78578684  0.67294808    -0.02070
C1300       C  0.53666695  0.77450583  0.65819482     0.04750
N1301       N  0.49432218  0.76361139  0.67014207     0.67250
H1302       H  0.50810136  0.76306267  0.61997359     0.16150
H1303       H  0.64636639  0.80280586  0.67139906     0.15860
N1304       N  0.65947117  0.80061050  0.62152700     0.74960
O1305       O  0.47142313  0.78010795  0.66130103    -0.38490
O1306       O  0.47688594  0.73313702  0.68723698    -0.38440
O1307       O  0.68115322  0.83430918  0.60673773    -0.39140
O1308       O  0.67899534  0.78017046  0.62977006    -0.39210
C1309       C  0.01489460  0.32152659  0.93736682    -0.11490
C1310       C  0.04493634  0.31044594  0.94940149     0.05520
C1311       C  0.02685475  0.27452111  0.96760491    -0.06780
C1312       C  0.98021157  0.25179279  0.97374870    -0.07520
C1313       C  0.95127834  0.26467190  0.96248451    -0.02070
C1314       C  0.96848272  0.29946201  0.94371254     0.04750
N1315       N  0.93984453  0.31351583  0.93126329     0.67250
H1316       H  0.02769598  0.34832266  0.92307362     0.16150
H1317       H  0.96691645  0.22527956  0.98826007     0.15860
N1318       N  0.05543346  0.26230196  0.98119055     0.74960
O1319       O  0.95714669  0.35327016  0.92221116    -0.38490
O1320       O  0.89801156  0.28541465  0.92725751    -0.38440
O1321       O  0.07946042  0.28703578  0.99971315    -0.39140
O1322       O  0.04830628  0.22237484  0.97901011    -0.39210
C1323       C  0.25857949  0.27908425  0.92809731    -0.11490
C1324       C  0.28017942  0.32514803  0.92062157     0.05520
C1325       C  0.32083552  0.34350412  0.90588966    -0.06780
C1326       C  0.33795585  0.31587938  0.89871877    -0.07520
C1327       C  0.31730456  0.27023986  0.90654586    -0.02070
C1328       C  0.27646973  0.25132882  0.92118490     0.04750
N1329       N  0.25210832  0.20419784  0.92862890     0.67250
H1330       H  0.22707069  0.26424008  0.93898253     0.16150
H1331       H  0.36967038  0.33162670  0.88798038     0.15860
N1332       N  0.34698159  0.39080187  0.89902417     0.74960
O1333       O  0.23310336  0.19279642  0.95043458    -0.38490
O1334       O  0.24334258  0.17355044  0.91209482    -0.38440
O1335       O  0.36584341  0.42062774  0.91650706    -0.39140
O1336       O  0.35881552  0.40187688  0.87586930    -0.39210
C1337       C  0.39598039  0.59673701  0.95321455    -0.11490
C1338       C  0.37267558  0.55335406  0.96423665     0.05520
C1339       C  0.38823329  0.54541881  0.98794297    -0.06780
C1340       C  0.42592485  0.58214759  0.50052682    -0.07520
C1341       C  0.44839219  0.62590796  0.98978324    -0.02070
C1342       C  0.43319181  0.63330134  0.96583460     0.04750
N1343       N  0.45287989  0.67823433  0.95499878     0.67250
H1344       H  0.38299308  0.60293170  0.93555728     0.16150
H1345       H  0.43818807  0.57662356  0.51863947     0.15860
N1346       N  0.36640578  0.50062608  0.99935293     0.74960
O1347       O  0.45512566  0.68332255  0.93082863    -0.38490
O1348       O  0.46156089  0.71178679  0.96924757    -0.38440
O1349       O  0.34545067  0.46529310  0.98546475    -0.39140
O1350       O  0.37175622  0.49605396  0.52303357    -0.39210
C1351       C  0.98343082  0.26251231  0.72254263    -0.11490
C1352       C  0.95555434  0.27421125  0.70854126     0.05520
C1353       C  0.97419167  0.30251558  0.68658599    -0.06780
C1354       C  0.01980981  0.32006404  0.68007257    -0.07520
C1355       C  0.04814585  0.31087942  0.69496475    -0.02070
C1356       C  0.02982757  0.28071120  0.71614143     0.04750
N1357       N  0.05774231  0.26937963  0.73165849     0.67250
H1358       H  0.96932294  0.24010522  0.73900721     0.16150
H1359       H  0.03405194  0.34363349  0.66404894     0.15860
N1360       N  0.94797025  0.31494410  0.67078403     0.74960
O1361       O  0.04456855  0.25224928  0.75378452    -0.38490
O1362       O  0.09374521  0.27283288  0.72263003    -0.38440
O1363       O  0.94334788  0.34779359  0.67770342    -0.39140
O1364       O  0.94129053  0.30251483  0.64745396    -0.39210
C1365       C  0.25938116  0.27734811  0.65984553    -0.11490
C1366       C  0.27802909  0.31414348  0.67737333     0.05520
C1367       C  0.32170405  0.32884449  0.68803171    -0.06780
C1368       C  0.34587731  0.30811678  0.68039137    -0.07520
C1369       C  0.32812252  0.27216998  0.66238786    -0.02070
C1370       C  0.28384551  0.25635350  0.65214029     0.04750
N1371       N  0.26359198  0.22031899  0.63340035     0.67250
H1372       H  0.22612904  0.26570846  0.65132780     0.16150
H1373       H  0.37925516  0.32064926  0.68896988     0.15860
N1374       N  0.34300877  0.36560557  0.70624755     0.74960
O1375       O  0.22284146  0.18815868  0.63628777    -0.38490
O1376       O  0.28262243  0.22530494  0.61179757    -0.38440
O1377       O  0.32908244  0.35929060  0.72926604    -0.39140
O1378       O  0.38056619  0.40090980  0.70071894    -0.39210
C1379       C  0.24490025  0.42449655  0.79670308    -0.11490
C1380       C  0.20566771  0.41921769  0.78448939     0.05520
C1381       C  0.16972501  0.41607372  0.79952582    -0.06780
C1382       C  0.17495710  0.42004571  0.82644759    -0.07520
C1383       C  0.21487285  0.42665609  0.83862906    -0.02070
C1384       C  0.25041728  0.42932333  0.82343472     0.04750
N1385       N  0.29180602  0.43584525  0.83464601     0.67250
H1386       H  0.27238203  0.42634691  0.78525319     0.16150
H1387       H  0.14719099  0.41711096  0.83807631     0.15860
N1388       N  0.12711618  0.40638871  0.78810932     0.74960
O1389       O  0.30494632  0.40840330  0.82913186    -0.38490
O1390       O  0.31998030  0.47389144  0.84462376    -0.38440
O1391       O  0.11068742  0.37966009  0.76902788    -0.39140
O1392       O  0.10281858  0.41946981  0.79914309    -0.39210
C1393       C  0.21579642  0.38358052  0.57506838    -0.11490
C1394       C  0.22378715  0.42196806  0.58911269     0.05520
C1395       C  0.22421993  0.45854208  0.57623104    -0.06780
C1396       C  0.21646822  0.45562441  0.54954290    -0.07520
C1397       C  0.20906437  0.41740929  0.53517696    -0.02070
C1398       C  0.20859190  0.38075242  0.54836519     0.04750
N1399       N  0.19990339  0.33995248  0.53534113     0.67250
H1400       H  0.21432811  0.35505049  0.58508550     0.16150
H1401       H  0.21740277  0.48418299  0.53991813     0.15860
N1402       N  0.23069088  0.49803537  0.58992959     0.74960
O1403       O  0.22437447  0.32300628  0.54023786    -0.38490
O1404       O  0.16295145  0.31626741  0.52314880    -0.38440
O1405       O  0.26647913  0.52182924  0.60309220    -0.39140
O1406       O  0.20503378  0.51368085  0.58517279    -0.39210
C1407       C  0.41513430  0.56998902  0.70574059    -0.11490
C1408       C  0.37308440  0.54906843  0.71846082     0.05520
C1409       C  0.36973800  0.56639930  0.74262813    -0.06780
C1410       C  0.40847595  0.60354396  0.75369898    -0.07520
C1411       C  0.45097950  0.62466076  0.74121612    -0.02070
C1412       C  0.45395468  0.60758806  0.71665752     0.04750
N1413       N  0.49543119  0.62839867  0.70205567     0.67250
H1414       H  0.41775386  0.55734454  0.68700897     0.16150
H1415       H  0.40484992  0.61633909  0.77214100     0.15860
N1416       N  0.32679964  0.54854541  0.75556656     0.74960
O1417       O  0.51225737  0.60469027  0.69510124    -0.38490
O1418       O  0.50872998  0.66615197  0.69115935    -0.38440
O1419       O  0.30771163  0.50909273  0.76507850    -0.39140
O1420       O  0.31333037  0.57521794  0.76231202    -0.39210
C1421       C  0.25648193  0.97370184  0.86753434    -0.11490
C1422       C  0.27907155  0.94923587  0.86979169     0.05520
C1423       C  0.32346180  0.97082637  0.88048667    -0.06780
C1424       C  0.34475568  0.01665003  0.88784307    -0.07520
C1425       C  0.32323683  0.04199517  0.88472731    -0.02070
C1426       C  0.27801273  0.01998675  0.87486852     0.04750
N1427       N  0.25428023  0.04411344  0.87098256     0.67250
H1428       H  0.22205245  0.95678194  0.85978996     0.16150
H1429       H  0.37922446  0.03308744  0.89554198     0.15860
N1430       N  0.34708616  0.94663632  0.88468632     0.74960
O1431       O  0.23058744  0.03685071  0.85085407    -0.38490
O1432       O  0.25011677  0.06598050  0.88935959    -0.38440
O1433       O  0.35386424  0.92679740  0.86617323    -0.39140
O1434       O  0.36757803  0.95136098  0.90579797    -0.39210
C1435       C  0.03672071  0.72572220  0.81554776    -0.11490
C1436       C  0.04937384  0.72754975  0.84151938     0.05520
C1437       C  0.01495236  0.70793234  0.86052030    -0.06780
C1438       C  0.96894547  0.68352456  0.85270359    -0.07520
C1439       C  0.95632690  0.67902057  0.82654390    -0.02070
C1440       C  0.99068655  0.70155400  0.80768863     0.04750
N1441       N  0.98021252  0.69754040  0.78055224     0.67250
H1442       H  0.06316461  0.74103607  0.80106255     0.16150
H1443       H  0.94255953  0.66704858  0.86720483     0.15860
N1444       N  0.02581625  0.71011204  0.88751057     0.74960
O1445       O  0.00508646  0.73003112  0.76556690    -0.38490
O1446       O  0.95065055  0.65968101  0.77094526    -0.38440
O1447       O  0.05615160  0.74717311  0.89750830    -0.39140
O1448       O  0.00046555  0.67721184  0.90213989    -0.39210
C1449       C  0.21789148  0.60941852  0.87362281    -0.11490
C1450       C  0.18734219  0.62365460  0.88023510     0.05520
C1451       C  0.15675343  0.60224957  0.90109947    -0.06780
C1452       C  0.15844040  0.56764571  0.91501033    -0.07520
C1453       C  0.18974418  0.55421808  0.90860672    -0.02070
C1454       C  0.21959220  0.57505383  0.88744781     0.04750
N1455       N  0.25257570  0.56264147  0.88010274     0.67250
H1456       H  0.24233790  0.62696909  0.85830944     0.16150
H1457       H  0.13475344  0.55051434  0.93068283     0.15860
N1458       N  0.12460176  0.61559895  0.90871481     0.74960
O1459       O  0.26587016  0.56703694  0.85699879    -0.38490
O1460       O  0.27195853  0.55169522  0.89694666    -0.38440
O1461       O  0.10985154  0.63260456  0.89257647    -0.39140
O1462       O  0.10773330  0.60680153  0.93110976    -0.39210
C1463       C  0.38485185  0.82338064  0.79872046    -0.11490
C1464       C  0.37725671  0.81526594  0.82545462     0.05520
C1465       C  0.40736940  0.80678595  0.83968596    -0.06780
C1466       C  0.44210932  0.80408241  0.82697939    -0.07520
C1467       C  0.44812574  0.80960108  0.80006295    -0.02070
C1468       C  0.42000727  0.82107595  0.78593818     0.04750
N1469       N  0.42491113  0.82829356  0.75860441     0.67250
H1470       H  0.36249319  0.83042465  0.78737402     0.16150
H1471       H  0.46399337  0.79637681  0.83833447     0.15860
N1472       N  0.40312288  0.80040245  0.86701030     0.74960
O1473       O  0.39004792  0.80880260  0.74423563    -0.38490
O1474       O  0.46159457  0.86080333  0.74961623    -0.38440
O1475       O  0.37725535  0.76101288  0.87601688    -0.39140
O1476       O  0.43177125  0.83157672  0.88167824    -0.39210
C1477       C  0.33030056  0.00943926  0.64350667    -0.11490
C1478       C  0.31652594  0.03849881  0.63307482     0.05520
C1479       C  0.27841084  0.01958659  0.61608097    -0.06780
C1480       C  0.25547177  0.97278762  0.61012185    -0.07520
C1481       C  0.27035152  0.94464243  0.62020702    -0.02070
C1482       C  0.30804326  0.96302322  0.63725790     0.04750
N1483       N  0.32474670  0.93546832  0.64809275     0.67250
H1484       H  0.35918372  0.02294471  0.65658244     0.16150
H1485       H  0.22686786  0.95864806  0.59679511     0.15860
N1486       N  0.26314912  0.04714003  0.60410315     0.74960
O1487       O  0.36647810  0.95328126  0.65390165    -0.38490
O1488       O  0.29748879  0.89443351  0.65411659    -0.38440
O1489       O  0.28694418  0.07457666  0.58651554    -0.39140
O1490       O  0.22212276  0.03674175  0.60675613    -0.39210
C1491       C  0.97067673  0.70174502  0.59507357    -0.11490
C1492       C  0.95643042  0.68026155  0.57091161     0.05520
C1493       C  0.98876039  0.67998336  0.55407004    -0.06780
C1494       C  0.03401474  0.69883928  0.56256428    -0.07520
C1495       C  0.04808297  0.71822759  0.58729985    -0.02070
C1496       C  0.01612672  0.72082793  0.60353388     0.04750
N1497       N  0.02790765  0.73937121  0.62918724     0.67250
H1498       H  0.94548037  0.70082816  0.60818873     0.16150
H1499       H  0.05854958  0.69786533  0.54973194     0.15860
N1500       N  0.97594480  0.65878293  0.52895069     0.74960
O1501       O  0.01163321  0.76252284  0.63802655    -0.38490
O1502       O  0.04806569  0.72657821  0.64437486    -0.38440
O1503       O  0.94472728  0.65917569  0.51607229    -0.39140
O1504       O  0.99870149  0.64335666  0.51848237    -0.39210
C1505       C  0.25115513  0.78025880  0.99409801    -0.11490
C1506       C  0.21085559  0.77171180  0.50615138     0.05520
C1507       C  0.17391976  0.76679687  0.99123283    -0.06780
C1508       C  0.17873827  0.77072018  0.96429763    -0.07520
C1509       C  0.21949449  0.78002788  0.95197650    -0.02070
C1510       C  0.25582758  0.78399570  0.96728679     0.04750
N1511       N  0.29767555  0.79174861  0.95619625     0.67250
H1512       H  0.27945551  0.78419154  0.50570845     0.16150
H1513       H  0.15054121  0.76741675  0.95291828     0.15860
N1514       N  0.13186551  0.75851515  0.50283755     0.74960
O1515       O  0.33518069  0.82541873  0.96364109    -0.38490
O1516       O  0.29787373  0.76027857  0.94350327    -0.38440
O1517       O  0.13156473  0.77328057  0.52513940    -0.39140
O1518       O  0.09514737  0.73929845  0.98997594    -0.39210
C1519       C  0.25365564  0.80493867  0.74397707    -0.11490
C1520       C  0.21150797  0.77527925  0.75565561     0.05520
C1521       C  0.17256482  0.74836156  0.74009937    -0.06780
C1522       C  0.17710745  0.75252389  0.71314588    -0.07520
C1523       C  0.21933211  0.78244112  0.70145322    -0.02070
C1524       C  0.25820945  0.80828730  0.71718065     0.04750
N1525       N  0.30227800  0.83898148  0.70647542     0.67250
H1526       H  0.28366758  0.82536302  0.75586209     0.16150
H1527       H  0.14721256  0.73254138  0.70114200     0.15860
N1528       N  0.12818511  0.71832520  0.75105318     0.74960
O1529       O  0.32263475  0.88064952  0.71263098    -0.38490
O1530       O  0.32485449  0.82315152  0.69626803    -0.38440
O1531       O  0.11653806  0.72838930  0.77197091    -0.39140
O1532       O  0.09859027  0.68414908  0.73842575    -0.39210
C1533       C  0.15727540  0.58874000  0.63829856    -0.11490
C1534       C  0.19922183  0.62682417  0.63079451     0.05520
C1535       C  0.24018193  0.62810344  0.63700879    -0.06780
C1536       C  0.23859737  0.59259930  0.65096480    -0.07520
C1537       C  0.19718702  0.55403643  0.65828391    -0.02070
C1538       C  0.15559148  0.55178577  0.65175191     0.04750
N1539       N  0.11186222  0.51254239  0.65784598     0.67250
H1540       H  0.12585548  0.58797111  0.63382657     0.16150
H1541       H  0.27064995  0.59467482  0.65553929     0.15860
N1542       N  0.28401353  0.66523111  0.62909342     0.74960
O1543       O  0.07803450  0.51713185  0.66225555    -0.38490
O1544       O  0.10537271  0.47284329  0.65568624    -0.38440
O1545       O  0.31805329  0.67979363  0.64398152    -0.39140
O1546       O  0.28990015  0.68032657  0.60634509    -0.39210
C1547       C  0.43493504  0.79477747  0.57647036    -0.11490
C1548       C  0.44282568  0.80311207  0.54984516     0.05520
C1549       C  0.41949443  0.82115420  0.53648197    -0.06780
C1550       C  0.38742207  0.82791772  0.54977316    -0.07520
C1551       C  0.37753201  0.81681669  0.57611663    -0.02070
C1552       C  0.40343552  0.80200940  0.58976490     0.04750
N1553       N  0.39855503  0.79424173  0.61707439     0.67250
H1554       H  0.45410277  0.78304859  0.58733012     0.16150
H1555       H  0.36803649  0.83932654  0.53887829     0.15860
N1556       N  0.42566714  0.83034637  0.50931138     0.74960
O1557       O  0.39917503  0.76056249  0.62648938    -0.38490
O1558       O  0.40092063  0.82458494  0.63204898    -0.38440
O1559       O  0.42252575  0.80031057  0.99382571    -0.39140
O1560       O  0.42698156  0.86535635  0.50043213    -0.39210
loop_ 
_geom_bond_atom_site_label_1 
_geom_bond_atom_site_label_2 
_geom_bond_distance 
_geom_bond_site_symmetry_2 
_ccdc_geom_bond_type 
Zn1           O5   1.908       .  S
Zn1           O6   2.007       .  S
Zn1          O10   2.012       .  S
Zn1          O17   1.980       .  S
Zn2           O5   1.901       .  S
Zn2           O7   2.004       .  S
Zn2           O9   2.034       .  S
Zn2          O13   1.964       .  S
Zn3           O5   1.919       .  S
Zn3           O8   2.023       .  S
Zn3          O11   2.020       .  S
Zn3          O14   2.041       .  S
Zn4           O5   1.928       .  S
Zn4          O12   2.003       .  S
Zn4          O15   2.083       .  S
Zn4          O16   2.043       .  S
O6           C18   1.271       .  A
O7           C19   1.276       .  A
O8           C20   1.274       .  A
O9           C18   1.276       .  A
O10          C20   1.274       .  A
O11          C19   1.278       .  A
O12          C21   1.275       .  A
O13          C22   1.268       .  A
O14          C21   1.277       .  A
O15          C22   1.280       .  A
O16          C23   1.281       .  A
O17          C23   1.274       .  A
C18         C771   1.496       .  S
C19         C743   1.479       .  S
C20         C701   1.468       .  S
C21         C715   1.486       .  S
C22         C754   1.483       .  S
C23         C726   1.462       .  S
Zn24         O28   1.904       .  S
Zn24         O29   1.977       .  S
Zn24         O33   1.999       .  S
Zn24         O40   2.010       .  S
Zn25         O28   1.931       .  S
Zn25         O30   2.075       .  S
Zn25         O32   2.047       .  S
Zn25         O36   2.019       .  S
Zn26         O28   1.921       .  S
Zn26         O31   2.045       .  S
Zn26         O34   1.987       .  S
Zn26         O37   2.015       .  S
Zn27         O28   1.923       .  S
Zn27         O35   2.011       .  S
Zn27         O38   2.037       .  S
Zn27         O39   2.031       .  S
O29          C41   1.274       .  A
O30          C42   1.281       .  A
O31          C43   1.277       .  A
O32          C41   1.281       .  A
O33          C43   1.271       .  A
O34          C42   1.269       .  A
O35          C44   1.277       .  A
O36          C45   1.275       .  A
O37          C44   1.277       .  A
O38          C45   1.276       .  A
O39          C46   1.275       .  A
O40          C46   1.274       .  A
C41         C740   1.471       .  S
C42         C670   1.478       .  S
C43         C684   1.493       .  S
C44         C729   1.489       .  S
C45         C656   1.480       .  S
C46         C642   1.473       .  S
Zn47         O51   1.909       .  S
Zn47         O52   2.044       .  S
Zn47         O56   1.962       .  S
Zn47         O63   2.009       .  S
Zn48         O51   1.881       .  S
Zn48         O53   1.965       .  S
Zn48         O55   1.986       .  S
Zn48         O59   1.977       .  S
Zn49         O51   1.934       .  S
Zn49         O54   2.083       .  S
Zn49         O57   2.050       .  S
Zn49         O60   1.992       .  S
Zn50         O51   1.926       .  S
Zn50         O58   2.036       .  S
Zn50         O61   2.041       .  S
Zn50         O62   2.013       .  S
O52          C64   1.276       .  A
O53          C65   1.271       .  A
O54          C66   1.280       .  A
O55          C64   1.268       .  A
O56          C66   1.269       .  A
O57          C65   1.281       .  A
O58          C67   1.278       .  A
O59          C68   1.270       .  A
O60          C67   1.273       .  A
O61          C68   1.276       .  A
O62          C69   1.277       .  A
O63          C69   1.276       .  A
C64         C628   1.476       .  S
C65         C600   1.471       .  S
C66         C757   1.488       .  S
C67         C575   1.464       .  S
C68         C586   1.490       .  S
C69         C614   1.470       .  S
Zn70         O74   1.887       .  S
Zn70         O75   1.984       .  S
Zn70         O79   1.984       .  S
Zn70         O86   1.976       .  S
Zn71         O74   1.917       .  S
Zn71         O76   2.031       .  S
Zn71         O78   2.071       .  S
Zn71         O82   1.996       .  S
Zn72         O74   1.927       .  S
Zn72         O77   2.044       .  S
Zn72         O80   2.006       .  S
Zn72         O83   2.053       .  S
Zn73         O74   1.908       .  S
Zn73         O81   1.981       .  S
Zn73         O84   2.047       .  S
Zn73         O85   2.032       .  S
O75          C87   1.269       .  A
O76         C868   1.282       .  A
O77          C89   1.277       .  A
O78          C87   1.280       .  A
O79          C89   1.274       .  A
O80         C868   1.275       .  A
O81          C90   1.271       .  A
O82          C91   1.270       .  A
O83          C90   1.279       .  A
O84          C91   1.277       .  A
O85          C92   1.277       .  A
O86          C92   1.272       .  A
C87         C673   1.478       .  S
C88         O856   1.282   1_554  A
C88         O860   1.275   1_554  A
C88         C617   1.489       .  S
C89         C530   1.491       .  S
C90         C544   1.492       .  S
C91         C558   1.472       .  S
C92         C603   1.476       .  S
Zn93        O877   1.919       .  S
Zn93        O102   2.040       .  S
Zn93        O878   2.056       .  S
Zn93        O889   1.982       .  S
Zn94         O97   1.917       .  S
Zn94         O99   2.050       .  S
Zn94        O101   1.986       .  S
Zn94        O105   2.022       .  S
Zn95        O877   1.894       .  S
Zn95        O100   1.984       .  S
Zn95        O883   1.996       .  S
Zn95        O886   2.017       .  S
Zn96         O97   1.916       .  S
Zn96        O104   2.017       .  S
Zn96        O107   2.001       .  S
Zn96        O108   2.042       .  S
O97        Zn873   1.919       .  S
O97        Zn875   1.894   1_554  S
O98        Zn873   2.056       .  S
O98         C110   1.278       .  A
O99         C111   1.278       .  A
O100        C112   1.274       .  A
O101        C110   1.271       .  A
O102        C112   1.279       .  A
O103       Zn875   1.996       .  S
O103        C111   1.272   1_556  A
O104        C113   1.274       .  A
O105        C114   1.280       .  A
O106       Zn875   2.017   1_554  S
O106        C113   1.275       .  A
O107        C114   1.275       .  A
O108        C115   1.277       .  A
O109       Zn873   1.982       .  S
O109        C115   1.272       .  A
C110        C768   1.491       .  S
C111       C1341   1.477   1_554  S
C112        C502   1.487       .  S
C113        C474   1.470       .  S
C114        C516   1.470       .  S
C115        C491   1.472       .  S
Zn116       O120   1.910       .  S
Zn116       O121   1.981       .  S
Zn116       O125   2.007       .  S
Zn116       O132   2.039       .  S
Zn117       O120   1.916       .  S
Zn117       O122   1.977       .  S
Zn117       O124   2.063       .  S
Zn117       O128   2.038       .  S
Zn118       O120   1.931       .  S
Zn118       O123   2.012       .  S
Zn118       O126   2.057       .  S
Zn118       O129   2.044       .  S
Zn119       O120   1.894       .  S
Zn119       O127   1.990       .  S
Zn119       O130   1.978       .  S
Zn119       O131   1.987       .  S
O121        C133   1.269       .  A
O122        C134   1.272       .  A
O123        C135   1.277       .  A
O124        C133   1.277       .  A
O125        C135   1.278       .  A
O126        C134   1.280       .  A
O127        C136   1.273       .  A
O128        C137   1.280       .  A
O129        C136   1.275       .  A
O130        C137   1.273       .  A
O131        C138   1.268       .  A
O132        C138   1.279       .  A
C133        C687   1.490       .  S
C134        C463   1.485       .  S
C135        C505   1.464       .  S
C136        C446   1.480       .  S
C137        C519   1.477       .  S
C138        C631   1.492       .  S
Zn139       O143   1.922       .  S
Zn139       O144   2.005       .  S
Zn139       O148   2.043       .  S
Zn139       O155   2.039       .  S
Zn140       O143   1.905       .  S
Zn140       O145   1.990       .  S
Zn140       O147   2.028       .  S
Zn140       O151   2.073       .  S
Zn141       O143   1.910       .  S
Zn141       O146   1.993       .  S
Zn141       O149   2.072       .  S
Zn141       O152   2.048       .  S
Zn142       O143   1.880       .  S
Zn142       O150   1.965       .  S
Zn142       O153   1.979       .  S
Zn142       O154   1.986       .  S
O144        C156   1.277       .  A
O145        C157   1.269       .  A
O146        C158   1.272       .  A
O147        C156   1.283       .  A
O148        C158   1.279       .  A
O149        C157   1.281       .  A
O150        C159   1.272       .  A
O151        C160   1.281       .  A
O152        C159   1.282       .  A
O153        C160   1.269       .  A
O154        C161   1.273       .  A
O155        C161   1.274       .  A
C156        C390   1.476       .  S
C157        C421   1.483       .  S
C158        C572   1.489       .  S
C159        C404   1.483       .  S
C160        C432   1.495       .  S
C161        C460   1.484       .  S
Zn162       O166   1.928       .  S
Zn162       O167   2.035       .  S
Zn162       O171   2.016       .  S
Zn162       O178   2.002       .  S
Zn163       O946   1.918       .  S
Zn163       O168   2.035   1_556  S
Zn163       O950   1.989       .  S
Zn163       O954   2.065       .  S
Zn164       O946   1.897   1_554  S
Zn164       O172   1.991       .  S
Zn164       O949   2.007   1_554  S
Zn164       O955   2.002       .  S
Zn165       O166   1.919       .  S
Zn165       O173   2.081       .  S
Zn165       O176   1.979       .  S
Zn165       O177   2.058       .  S
O166       Zn943   1.918       .  S
O166       Zn944   1.897       .  S
O167        C179   1.276       .  A
O168        C180   1.280       .  A
O169       Zn944   2.007       .  S
O169        C181   1.274       .  A
O170       Zn943   1.989       .  S
O170        C179   1.273       .  A
O171        C181   1.273       .  A
O172        C180   1.274       .  A
O173        C182   1.283       .  A
O174       Zn943   2.065       .  S
O174        C183   1.280       .  A
O175       Zn944   2.002       .  S
O175        C182   1.271       .  A
O176        C183   1.270       .  A
O177        C184   1.285       .  A
O178        C184   1.274       .  A
C179        C488   1.487       .  S
C180        C407   1.467       .  S
C181        C533   1.465       .  S
C182       C1145   1.500       .  S
C183        C376   1.485       .  S
C184        C393   1.478       .  S
Zn185       O189   1.901       .  S
Zn185       O190   2.003       .  S
Zn185       O194   1.974       .  S
Zn185       O201   1.987       .  S
Zn186       O189   1.925       .  S
Zn186       O191   2.043       .  S
Zn186       O193   2.026       .  S
Zn186       O977   2.008       .  S
Zn187       O189   1.931       .  S
Zn187       O192   2.060       .  S
Zn187       O195   2.001       .  S
Zn187       O198   2.072       .  S
Zn188       O189   1.925       .  S
Zn188       O196   1.995       .  S
Zn188       O200   2.062       .  S
Zn188       O979   2.018       .  S
O190        C202   1.272       .  A
O191        C203   1.278       .  A
O192        C204   1.282       .  A
O193        C202   1.275       .  A
O194        C204   1.272       .  A
O195        C203   1.273       .  A
O196        C205   1.270       .  A
O197       Zn966   2.008       .  S
O197        C206   1.277       .  A
O198        C205   1.282       .  A
O199       Zn968   2.018       .  S
O199        C206   1.279       .  A
O200        C207   1.281       .  A
O201        C207   1.270       .  A
C202        C477   1.490       .  S
C203        C712   1.471       .  S
C204        C334   1.474       .  S
C205        C362   1.486       .  S
C206        C323   1.470       .  S
C207        C351   1.485       .  S
Zn208       O212   1.927       .  S
Zn208       O213   2.051       .  S
Zn208       O217   2.043       .  S
Zn208       O224   2.018       .  S
Zn209       O212   1.923       .  S
Zn209       O214   2.049       .  S
Zn209       O216   2.003       .  S
Zn209       O220   2.078       .  S
Zn210       O212   1.897       .  S
Zn210       O215   1.997       .  S
Zn210       O218   1.979       .  S
Zn210       O221   2.011       .  S
Zn211       O212   1.911       .  S
Zn211       O219   2.061       .  S
Zn211       O222   1.975       .  S
Zn211       O223   2.028       .  S
O213        C225   1.279       .  A
O214        C226   1.281       .  A
O215        C227   1.274       .  A
O216        C225   1.274       .  A
O217        C227   1.277       .  A
O218        C226   1.274       .  A
O219        C228   1.280       .  A
O220        C229   1.281       .  A
O221        C228   1.272       .  A
O222        C229   1.269       .  A
O223        C230   1.280       .  A
O224        C230   1.278       .  A
C225        C659   1.480       .  S
C226        C320   1.483       .  S
C227        C449   1.479       .  S
C228        C306   1.489       .  S
C229        C418   1.488       .  S
C230        C337   1.481       .  S
Zn231       O235   1.887       .  S
Zn231       O236   1.990       .  S
Zn231       O240   1.974       .  S
Zn231       O247   1.979       .  S
Zn232       O235   1.925       .  S
Zn232       O237   2.038       .  S
Zn232       O239   2.036       .  S
Zn232       O243   2.001       .  S
Zn233       O235   1.917       .  S
Zn233       O238   2.057       .  S
Zn233       O241   1.998       .  S
Zn233       O244   2.070       .  S
Zn234       O235   1.917       .  S
Zn234       O242   1.991       .  S
Zn234       O245   2.036       .  S
Zn234       O246   2.069       .  S
O236        C248   1.273       .  A
O237        C249   1.277       .  A
O238        C250   1.282       .  A
O239        C248   1.274       .  A
O240        C250   1.270       .  A
O241        C249   1.276       .  A
O242        C251   1.270       .  A
O243        C252   1.276       .  A
O244        C251   1.281       .  A
O245        C252   1.281       .  A
O246        C253   1.281       .  A
O247        C253   1.269       .  A
C248        C698   1.492       .  S
C249        C589   1.492       .  S
C250        C281   1.474       .  S
C251        C348   1.483       .  S
C252        C292   1.471       .  S
C253        C435   1.489       .  S
Zn254       O258   1.917       .  S
Zn254       O259   1.979       .  S
Zn254       O263   2.024       .  S
Zn254       O270   2.065       .  S
Zn255       O258   1.922       .  S
Zn255       O260   2.007       .  S
Zn255       O262   2.073       .  S
Zn255       O266   2.066       .  S
Zn256       O258   1.928       .  S
Zn256       O261   2.002       .  S
Zn256       O264   2.045       .  S
Zn256       O267   2.042       .  S
Zn257       O258   1.885       .  S
Zn257       O265   1.982       .  S
Zn257       O268   1.968       .  S
Zn257       O269   2.002       .  S
O259        C271   1.267       .  A
O260        C272   1.276       .  A
O261        C273   1.275       .  A
O262        C271   1.282       .  A
O263        C273   1.280       .  A
O264        C272   1.278       .  A
O265        C274   1.274       .  A
O266        C275   1.283       .  A
O267        C274   1.276       .  A
O268        C275   1.270       .  A
O269        C276   1.270       .  A
O270        C276   1.280       .  A
C271        C379   1.483       .  S
C272        C645   1.482       .  S
C273        C295   1.473       .  S
C274        C547   1.490       .  S
C275        C278   1.483       .  S
C276        C309   1.482       .  S
C277        C278   1.401       .  A
C277        C282   1.403       .  A
C277        H284   1.084       .  S
C278        C279   1.422       .  A
C279        C280   1.401       .  A
C279        N286   1.435       .  S
C280        C281   1.397       .  A
C280        H285   1.084       .  S
C281        C282   1.418       .  A
C282        N283   1.436       .  S
N283        O287   1.262       .  A
N283        O288   1.262       .  A
N286        O289   1.262       .  A
N286        O290   1.263       .  A
C291        C292   1.399       .  A
C291        C296   1.406       .  A
C291        H298   1.084       .  S
C292        C293   1.417       .  A
C293        C294   1.402       .  A
C293        N300   1.443       .  S
C294       C1075   1.400   1_554  A
C294       H1079   1.084       .  S
C295       C1074   1.400       .  A
C295       C1076   1.423       .  A
C296       C1075   1.423   1_554  A
C296       N1077   1.446   1_554  S
N297       C1076   1.446       .  S
N297        O301   1.263       .  A
N297        O302   1.262       .  A
H299       C1074   1.084       .  S
N300        O303   1.262       .  A
N300        O304   1.263       .  A
C305        C306   1.404       .  A
C305        C310   1.409       .  A
C305        H312   1.084       .  S
C306        C307   1.418       .  A
C307        C308   1.411       .  A
C307        N314   1.439       .  S
C308        C309   1.403       .  A
C308        H313   1.084       .  S
C309        C310   1.418       .  A
C310        N311   1.442       .  S
N311        O315   1.263       .  A
N311        O316   1.262       .  A
N314        O317   1.262       .  A
N314        O318   1.263       .  A
C319        C320   1.409       .  A
C319        C324   1.404       .  A
C319        H326   1.083       .  S
C320        C321   1.412       .  A
C321        C322   1.401       .  A
C321        N328   1.433       .  S
C322        C323   1.401       .  A
C322        H327   1.082       .  S
C323        C324   1.412       .  A
C324        N325   1.442       .  S
N325        O329   1.263       .  A
N325        O330   1.263       .  A
N328        O331   1.263       .  A
N328        O332   1.262       .  A
C333        C334   1.405       .  A
C333        C338   1.398       .  A
C333        H340   1.085       .  S
C334        C335   1.413       .  A
C335        C336   1.407       .  A
C335        N342   1.441       .  S
C336        C337   1.409       .  A
C336        H341   1.083       .  S
C337        C338   1.410       .  A
C338        N339   1.433       .  S
N339        O343   1.262       .  A
N339        O344   1.262       .  A
N342        O345   1.263       .  A
N342        O346   1.263       .  A
C347        C348   1.408       .  A
C347        C352   1.406       .  A
C347        H354   1.081       .  S
C348        C349   1.413       .  A
C349        C350   1.408       .  A
C349        N356   1.441       .  S
C350        C351   1.410       .  A
C350        H355   1.084       .  S
C351        C352   1.411       .  A
C352        N353   1.441       .  S
N353        O357   1.263       .  A
N353        O358   1.263       .  A
N356        O359   1.263       .  A
N356        O360   1.263       .  A
C361        C362   1.392       .  A
C361        C366   1.402       .  A
C361        H368   1.084       .  S
C362        C363   1.423       .  A
C363       C1144   1.414   1_554  A
C363       N1150   1.441   1_554  S
C364       C1143   1.414       .  A
C364       C1145   1.402       .  A
C364        H369   1.083       .  S
C365        C962   1.500   1_554  S
C365        C366   1.422       .  A
C365       C1144   1.402   1_554  A
C366        N367   1.426       .  S
N367        O371   1.262       .  A
N367        O372   1.262       .  A
N370       C1143   1.441       .  S
N370        O373   1.263       .  A
N370        O374   1.262       .  A
C375        C376   1.396       .  A
C375        C380   1.404       .  A
C375        H382   1.084       .  S
C376        C377   1.422       .  A
C377        C378   1.404       .  A
C377        N384   1.437       .  S
C378        C379   1.397       .  A
C378        H383   1.084       .  S
C379        C380   1.422       .  A
C380        N381   1.432       .  S
N381        O385   1.263       .  A
N381        O386   1.262       .  A
N384        O387   1.260       .  A
N384        O388   1.263       .  A
C389        C390   1.399       .  A
C389        C394   1.401       .  A
C389        H396   1.084       .  S
C390        C391   1.419       .  A
C391        C392   1.404       .  A
C391        N398   1.440       .  S
C392        C393   1.401       .  A
C392        H397   1.083       .  S
C393        C394   1.420       .  A
C394        N395   1.439       .  S
N395        O399   1.263       .  A
N395        O400   1.261       .  A
N398        O401   1.261       .  A
N398        O402   1.263       .  A
C403        C404   1.412       .  A
C403        C408   1.407       .  A
C403        H410   1.084       .  S
C404        C405   1.407       .  A
C405        C406   1.392       .  A
C405        N412   1.429       .  S
C406        C407   1.397       .  A
C406        H411   1.079       .  S
C407        C408   1.414       .  A
C408        N409   1.445       .  S
N409        O413   1.263       .  A
N409        O414   1.261       .  A
N412        O415   1.260       .  A
N412        O416   1.262       .  A
C417        C418   1.399       .  A
C417        C422   1.406       .  A
C417        H424   1.084       .  S
C418        C419   1.422       .  A
C419        C420   1.405       .  A
C419        N426   1.438       .  S
C420        C421   1.398       .  A
C420        H425   1.084       .  S
C421        C422   1.420       .  A
C422        N423   1.433       .  S
N423        O427   1.263       .  A
N423        O428   1.261       .  A
N426        O429   1.262       .  A
N426        O430   1.263       .  A
C431        C432   1.414       .  A
C431        C436   1.408       .  A
C431        H438   1.083       .  S
C432        C433   1.408       .  A
C433        C434   1.402       .  A
C433        N440   1.429       .  S
C434        C435   1.411       .  A
C434        H439   1.083       .  S
C435        C436   1.412       .  A
C436        N437   1.438       .  S
N437        O441   1.263       .  A
N437        O442   1.263       .  A
N440        O443   1.262       .  A
N440        O444   1.262       .  A
C445        C446   1.402       .  A
C445        C450   1.396       .  A
C445        H452   1.085       .  S
C446        C447   1.417       .  A
C447        C448   1.412       .  A
C447        N454   1.437       .  S
C448        C449   1.406       .  A
C448        H453   1.084       .  S
C449        C450   1.414       .  A
C450        N451   1.440       .  S
N451        O455   1.263       .  A
N451        O456   1.263       .  A
N454        O457   1.261       .  A
N454        O458   1.263       .  A
C459        C460   1.402       .  A
C459        C464   1.392   1_545  A
C459        H466   1.084       .  S
C460        C461   1.417       .  A
C461        C462   1.410   1_545  A
C461        N468   1.432       .  S
C462        C463   1.406       .  A
C462        H467   1.084       .  S
C463        C464   1.416       .  A
C464        N465   1.435       .  S
N465        O469   1.263       .  A
N465        O470   1.262       .  A
N468        O471   1.262       .  A
N468        O472   1.262       .  A
C473        C474   1.400       .  A
C473        C478   1.398       .  A
C473        H480   1.085       .  S
C474        C475   1.413       .  A
C475        C476   1.408       .  A
C475       N1262   1.443   1_554  S
C476        C477   1.410       .  A
C476        H481   1.082       .  S
C477        C478   1.416       .  A
C478        N479   1.431       .  S
N479        O483   1.262       .  A
N479        O484   1.262       .  A
N482       C1255   1.443       .  S
N482        O485   1.263       .  A
N482        O486   1.263       .  A
C487        C488   1.406       .  A
C487       C1272   1.389   1_545  A
C487        H494   1.084       .  S
C488        C489   1.422       .  A
C489       C1270   1.412   1_545  A
C489        N496   1.436       .  S
C490        C491   1.403       .  A
C490       C1269   1.412   1_564  A
C490        H495   1.084   1_554  S
C491        C492   1.405       .  A
C492       C1267   1.389   1_565  A
C492        N493   1.430       .  S
N493        O497   1.262       .  A
N493        O498   1.262       .  A
N496        O499   1.262       .  A
N496        O500   1.263       .  A
C501        C502   1.411       .  A
C501        C506   1.402       .  A
C501        H508   1.083       .  S
C502        C503   1.417       .  A
C503        C504   1.401       .  A
C503        N510   1.434       .  S
C504        C505   1.401       .  A
C504        H509   1.084       .  S
C505        C506   1.410       .  A
C506        N507   1.443       .  S
N507        O511   1.263       .  A
N507        O512   1.263       .  A
N510        O513   1.262       .  A
N510        O514   1.262       .  A
C515        C516   1.403       .  A
C515        C520   1.402       .  A
C515        H522   1.084       .  S
C516        C517   1.411       .  A
C517        C518   1.399       .  A
C517        N524   1.435       .  S
C518        C519   1.405       .  A
C518        H523   1.084       .  S
C519        C520   1.414       .  A
C520        N521   1.435       .  S
N521        O525   1.262       .  A
N521        O526   1.262       .  A
N524        O527   1.262       .  A
N524        O528   1.262       .  A
C529        C530   1.408       .  A
C529        C534   1.399   1_455  A
C529        H536   1.083       .  S
C530        C531   1.417       .  A
C531        C532   1.403   1_455  A
C531        N538   1.428       .  S
C532        C533   1.398       .  A
C532        H537   1.084       .  S
C533        C534   1.413       .  A
C534        N535   1.444       .  S
N535        O539   1.263       .  A
N535        O540   1.262       .  A
N538        O541   1.261       .  A
N538        O542   1.262       .  A
C543        C544   1.409       .  A
C543        C548   1.412       .  A
C543        H550   1.083       .  S
C544        C545   1.418       .  A
C545        C546   1.391       .  A
C545        N552   1.435       .  S
C546        C547   1.403       .  A
C546        H551   1.084       .  S
C547        C548   1.419       .  A
C548        N549   1.436       .  S
N549        O553   1.263       .  A
N549        O554   1.263       .  A
N552        O555   1.263       .  A
N552        O556   1.262       .  A
C557        C558   1.397       .  A
C557        C562   1.402       .  A
C557        H564   1.084       .  S
C558        C559   1.419       .  A
C559       C1340   1.411       .  A
C559        N566   1.443       .  S
C560       C1339   1.411   1_554  A
C560       C1341   1.401   1_554  A
C560        H565   1.083       .  S
C561        C891   1.477       .  S
C561        C562   1.417       .  A
C561       C1340   1.401       .  A
C562        N563   1.439       .  S
N563        O567   1.262       .  A
N563        O568   1.263       .  A
N566        O569   1.263       .  A
N566       O1350   1.263       .  A
O570       N1346   1.263   1_554  A
C571        C572   1.408       .  A
C571        C576   1.411   1_655  A
C571        H578   1.083       .  S
C572        C573   1.418       .  A
C573        C574   1.392   1_655  A
C573        N580   1.429       .  S
C574        C575   1.393       .  A
C574        H579   1.085       .  S
C575        C576   1.416       .  A
C576        N577   1.443       .  S
N577        O581   1.263       .  A
N577        O582   1.262       .  A
N580        O583   1.263       .  A
N580        O584   1.262       .  A
C585        C586   1.408       .  A
C585        C590   1.409       .  A
C585        H592   1.083       .  S
C586        C587   1.416       .  A
C587        C588   1.392       .  A
C587        N594   1.433       .  S
C588        C589   1.405       .  A
C588        H593   1.084       .  S
C589        C590   1.419       .  A
C590        N591   1.434       .  S
N591        O595   1.263       .  A
N591        O596   1.262       .  A
N594        O597   1.262       .  A
N594        O598   1.262       .  A
C599        C600   1.405       .  A
C599        C604   1.396       .  A
C599        H606   1.084       .  S
C600        C601   1.410       .  A
C601        C602   1.404       .  A
C601        N608   1.440       .  S
C602        C603   1.409       .  A
C602        H607   1.084       .  S
C603        C604   1.410       .  A
C604        N605   1.433       .  S
N605        O609   1.262       .  A
N605        O610   1.262       .  A
N608        O611   1.263       .  A
N608        O612   1.263       .  A
C613        C614   1.397       .  A
C613        C618   1.400       .  A
C613        H620   1.084       .  S
C614        C615   1.412       .  A
C615        C616   1.402       .  A
C615        N622   1.436       .  S
C616        C617   1.407       .  A
C616        H621   1.083       .  S
C617        C618   1.422       .  A
C618        N619   1.435       .  S
N619        O623   1.263       .  A
N619        O624   1.261       .  A
N622        O625   1.262       .  A
N622        O626   1.263       .  A
C627        C628   1.398       .  A
C627        C632   1.404       .  A
C627        H634   1.084       .  S
C628        C629   1.414       .  A
C629        C630   1.399       .  A
C629        N636   1.433       .  S
C630        C631   1.404       .  A
C630        H635   1.084       .  S
C631        C632   1.424       .  A
C632        N633   1.432       .  S
N633        O637   1.262       .  A
N633        O638   1.262       .  A
N636        O639   1.260       .  A
N636        O640   1.262       .  A
C641        C642   1.403       .  A
C641        C646   1.410   1_565  A
C641        H648   1.084       .  S
C642        C643   1.411       .  A
C643        C644   1.398   1_565  A
C643        N650   1.437       .  S
C644        C645   1.403       .  A
C644        H649   1.085       .  S
C645        C646   1.418       .  A
C646        N647   1.436       .  S
N647        O651   1.263       .  A
N647        O652   1.262       .  A
N650        O653   1.262       .  A
N650        O654   1.262       .  A
C655        C656   1.405       .  A
C655        C660   1.406   1_455  A
C655        H662   1.082       .  S
C656        C657   1.413       .  A
C657        C658   1.405   1_455  A
C657        N664   1.439       .  S
C658        C659   1.406       .  A
C658        H663   1.084       .  S
C659        C660   1.415       .  A
C660        N661   1.440       .  S
N661        O665   1.263   1_655  A
N661        O666   1.262       .  A
N664        O667   1.262       .  A
N664        O668   1.263       .  A
C669        C670   1.400       .  A
C669        C674   1.404       .  A
C669        H676   1.084       .  S
C670        C671   1.420       .  A
C671        C672   1.413       .  A
C671        N678   1.443       .  S
C672        C673   1.402       .  A
C672        H677   1.083       .  S
C673        C674   1.417       .  A
C674        N675   1.443       .  S
N675        O679   1.263       .  A
N675        O680   1.263       .  A
N678        O681   1.262       .  A
N678        O682   1.263       .  A
C683        C684   1.412       .  A
C683        C688   1.408       .  A
C683        H690   1.084       .  S
C684        C685   1.410       .  A
C685        C686   1.400       .  A
C685        N692   1.430       .  S
C686        C687   1.410       .  A
C686        H691   1.084       .  S
C687        C688   1.413       .  A
C688        N689   1.434       .  S
N689        O693   1.263       .  A
N689        O694   1.262       .  A
N692        O695   1.262       .  A
N692        O696   1.262       .  A
C697        C698   1.408       .  A
C697        C702   1.399   1_545  A
C697        H704   1.083       .  S
C698        C699   1.419       .  A
C699        C700   1.406   1_545  A
C699        N706   1.432       .  S
C700        C701   1.400       .  A
C700        H705   1.084       .  S
C701        C702   1.412       .  A
C702        N703   1.443       .  S
N703        O707   1.263       .  A
N703        O708   1.262       .  A
N706        O709   1.262       .  A
N706        O710   1.262       .  A
C711        C712   1.404       .  A
C711        C716   1.407   1_655  A
C711        H718   1.084       .  S
C712        C713   1.411       .  A
C713        C714   1.402   1_655  A
C713        N720   1.442       .  S
C714        C715   1.407       .  A
C714        H719   1.083       .  S
C715        C716   1.416       .  A
C716        N717   1.437       .  S
N717        O721   1.263       .  A
N717        O722   1.262       .  A
N720        O723   1.262       .  A
N720        O724   1.263       .  A
C725        C730   1.398       .  A
C725       C1506   1.398       .  A
C725       H1512   1.085       .  S
C726       C1505   1.398   1_554  A
C726       C1507   1.412   1_554  A
C727        C728   1.405       .  A
C727       C1506   1.412       .  A
C727       N1514   1.444       .  S
C728        C729   1.411       .  A
C728        H733   1.083       .  S
C729        C730   1.417       .  A
C730        N731   1.432       .  S
N731        O735   1.262       .  A
N731        O736   1.262       .  A
H732       C1505   1.085   1_554  S
N734       C1507   1.444   1_554  S
N734        O737   1.262       .  A
N734       O1518   1.263   1_554  A
O738       N1514   1.263       .  A
C739        C740   1.403       .  A
C739        C744   1.396       .  A
C739        H746   1.085       .  S
C740        C741   1.414       .  A
C741        C742   1.406       .  A
C741        N748   1.441       .  S
C742        C743   1.407       .  A
C742        H747   1.084       .  S
C743        C744   1.412       .  A
C744        N745   1.433       .  S
N745        O749   1.262       .  A
N745        O750   1.262       .  A
N748        O751   1.261       .  A
N748        O752   1.263       .  A
C753        C754   1.408       .  A
C753        C758   1.420       .  A
C753        H760   1.083       .  S
C754        C755   1.412       .  A
C755        C756   1.392       .  A
C755        N762   1.438       .  S
C756        C757   1.403       .  A
C756        H761   1.085       .  S
C757        C758   1.421       .  A
C758        N759   1.439       .  S
N759        O763   1.263       .  A
N759        O764   1.262       .  A
N762        O765   1.262       .  A
N762        O766   1.263       .  A
C767        C768   1.408       .  A
C767        C772   1.401       .  A
C767        H774   1.084       .  S
C768        C769   1.414       .  A
C769        C770   1.409       .  A
C769        N776   1.436       .  S
C770        C771   1.412       .  A
C770        H775   1.083       .  S
C771        C772   1.413       .  A
C772        N773   1.435       .  S
N773        O777   1.262       .  A
N773        O778   1.263       .  A
N776        O780   1.263       .  A
N776       O1559   1.262   1_554  A
O779       N1556   1.262       .  A
Zn781       O785   1.908       .  S
Zn781       O786   2.007       .  S
Zn781       O790   2.012       .  S
Zn781       O797   1.980       .  S
Zn782       O785   1.901       .  S
Zn782       O787   2.004       .  S
Zn782       O789   2.034       .  S
Zn782       O793   1.964       .  S
Zn783       O785   1.919       .  S
Zn783       O788   2.023       .  S
Zn783       O791   2.020       .  S
Zn783       O794   2.041       .  S
Zn784       O785   1.928       .  S
Zn784       O792   2.003       .  S
Zn784       O795   2.083       .  S
Zn784       O796   2.043       .  S
O786        C798   1.271       .  A
O787        C799   1.276       .  A
O788        C800   1.274       .  A
O789        C798   1.276       .  A
O790        C800   1.274       .  A
O791        C799   1.278       .  A
O792        C801   1.275       .  A
O793        C802   1.268       .  A
O794        C801   1.277       .  A
O795        C802   1.280       .  A
O796        C803   1.281       .  A
O797        C803   1.274       .  A
C798       C1551   1.496       .  S
C799       C1523   1.479       .  S
C800       C1481   1.468       .  S
C801       C1495   1.486       .  S
C802       C1534   1.483       .  S
C803       C1506   1.462       .  S
Zn804       O808   1.904       .  S
Zn804       O809   1.977       .  S
Zn804       O813   1.999       .  S
Zn804       O820   2.010       .  S
Zn805       O808   1.931       .  S
Zn805       O810   2.075       .  S
Zn805       O812   2.047       .  S
Zn805       O816   2.019       .  S
Zn806       O808   1.921       .  S
Zn806       O811   2.045       .  S
Zn806       O814   1.987       .  S
Zn806       O817   2.015       .  S
Zn807       O808   1.923       .  S
Zn807       O815   2.011       .  S
Zn807       O818   2.037       .  S
Zn807       O819   2.031       .  S
O809        C821   1.274       .  A
O810        C822   1.281       .  A
O811        C823   1.277       .  A
O812        C821   1.281       .  A
O813        C823   1.271       .  A
O814        C822   1.269       .  A
O815        C824   1.277       .  A
O816        C825   1.275       .  A
O817        C824   1.277       .  A
O818        C825   1.276       .  A
O819        C826   1.275       .  A
O820        C826   1.274       .  A
C821       C1520   1.471       .  S
C822       C1450   1.478       .  S
C823       C1464   1.493       .  S
C824       C1509   1.489       .  S
C825       C1436   1.480       .  S
C826       C1422   1.473       .  S
Zn827       O831   1.909       .  S
Zn827       O832   2.044       .  S
Zn827       O836   1.962       .  S
Zn827       O843   2.009       .  S
Zn828       O831   1.881       .  S
Zn828       O833   1.965       .  S
Zn828       O835   1.986       .  S
Zn828       O839   1.977       .  S
Zn829       O831   1.934       .  S
Zn829       O834   2.083       .  S
Zn829       O837   2.050       .  S
Zn829       O840   1.992       .  S
Zn830       O831   1.926       .  S
Zn830       O838   2.036       .  S
Zn830       O841   2.041       .  S
Zn830       O842   2.013       .  S
O832        C844   1.276       .  A
O833        C845   1.271       .  A
O834        C846   1.280       .  A
O835        C844   1.268       .  A
O836        C846   1.269       .  A
O837        C845   1.281       .  A
O838        C847   1.278       .  A
O839        C848   1.270       .  A
O840        C847   1.273       .  A
O841        C848   1.276       .  A
O842        C849   1.277       .  A
O843        C849   1.276       .  A
C844       C1408   1.476       .  S
C845       C1380   1.471       .  S
C846       C1537   1.488       .  S
C847       C1355   1.464       .  S
C848       C1366   1.490       .  S
C849       C1394   1.470       .  S
Zn850       O854   1.887       .  S
Zn850       O855   1.984       .  S
Zn850       O859   1.984       .  S
Zn850       O866   1.976       .  S
Zn851       O854   1.917       .  S
Zn851       O856   2.031       .  S
Zn851       O858   2.071       .  S
Zn851       O862   1.996       .  S
Zn852       O854   1.927       .  S
Zn852       O857   2.044       .  S
Zn852       O860   2.006       .  S
Zn852       O863   2.053       .  S
Zn853       O854   1.908       .  S
Zn853       O861   1.981       .  S
Zn853       O864   2.047       .  S
Zn853       O865   2.032       .  S
O855        C867   1.269       .  A
O857        C869   1.277       .  A
O858        C867   1.280       .  A
O859        C869   1.274       .  A
O861        C870   1.271       .  A
O862        C871   1.270       .  A
O863        C870   1.279       .  A
O864        C871   1.277       .  A
O865        C872   1.277       .  A
O866        C872   1.272       .  A
C867       C1453   1.478       .  S
C868       C1397   1.489       .  S
C869       C1310   1.491       .  S
C870       C1324   1.492       .  S
C871       C1338   1.472       .  S
C872       C1383   1.476       .  S
Zn873       O882   2.040   1_554  S
Zn874       O877   1.917       .  S
Zn874       O879   2.050       .  S
Zn874       O881   1.986       .  S
Zn874       O885   2.022       .  S
Zn875       O880   1.984       .  S
Zn876       O877   1.916       .  S
Zn876       O884   2.017       .  S
Zn876       O887   2.001       .  S
Zn876       O888   2.042       .  S
O878        C890   1.278       .  A
O879        C891   1.278       .  A
O880        C892   1.274       .  A
O881        C890   1.271       .  A
O882        C892   1.279       .  A
O883        C891   1.272       .  A
O884        C893   1.274       .  A
O885        C894   1.280       .  A
O886        C893   1.275       .  A
O887        C894   1.275       .  A
O888        C895   1.277       .  A
O889        C895   1.272       .  A
C890       C1548   1.491       .  S
C892       C1282   1.487       .  S
C893       C1254   1.470       .  S
C894       C1296   1.470       .  S
C895       C1271   1.472       .  S
Zn896       O900   1.910       .  S
Zn896       O901   1.981       .  S
Zn896       O905   2.007       .  S
Zn896       O912   2.039       .  S
Zn897       O900   1.916       .  S
Zn897       O902   1.977       .  S
Zn897       O904   2.063       .  S
Zn897       O908   2.038       .  S
Zn898       O900   1.931       .  S
Zn898       O903   2.012       .  S
Zn898       O906   2.057       .  S
Zn898       O909   2.044       .  S
Zn899       O900   1.894       .  S
Zn899       O907   1.990       .  S
Zn899       O910   1.978       .  S
Zn899       O911   1.987       .  S
O901        C913   1.269       .  A
O902        C914   1.272       .  A
O903        C915   1.277       .  A
O904        C913   1.277       .  A
O905        C915   1.278       .  A
O906        C914   1.280       .  A
O907        C916   1.273       .  A
O908        C917   1.280       .  A
O909        C916   1.275       .  A
O910        C917   1.273       .  A
O911        C918   1.268       .  A
O912        C918   1.279       .  A
C913       C1467   1.490       .  S
C914       C1243   1.485       .  S
C915       C1285   1.464       .  S
C916       C1226   1.480       .  S
C917       C1299   1.477       .  S
C918       C1411   1.492       .  S
Zn919       O923   1.922       .  S
Zn919       O924   2.005       .  S
Zn919       O928   2.043       .  S
Zn919       O935   2.039       .  S
Zn920       O923   1.905       .  S
Zn920       O925   1.990       .  S
Zn920       O927   2.028       .  S
Zn920       O931   2.073       .  S
Zn921       O923   1.910       .  S
Zn921       O926   1.993       .  S
Zn921       O929   2.072       .  S
Zn921       O932   2.048       .  S
Zn922       O923   1.880       .  S
Zn922       O930   1.965       .  S
Zn922       O933   1.979       .  S
Zn922       O934   1.986       .  S
O924        C936   1.277       .  A
O925        C937   1.269       .  A
O926        C938   1.272       .  A
O927        C936   1.283       .  A
O928        C938   1.279       .  A
O929        C937   1.281       .  A
O930        C939   1.272       .  A
O931        C940   1.281       .  A
O932        C939   1.282       .  A
O933        C940   1.269       .  A
O934        C941   1.273       .  A
O935        C941   1.274       .  A
C936       C1170   1.476       .  S
C937       C1201   1.483       .  S
C938       C1352   1.489       .  S
C939       C1184   1.483       .  S
C940       C1212   1.495       .  S
C941       C1240   1.484       .  S
Zn942       O946   1.928       .  S
Zn942       O947   2.035       .  S
Zn942       O951   2.016       .  S
Zn942       O958   2.002       .  S
Zn943       O948   2.035       .  S
Zn944       O952   1.991       .  S
Zn945       O946   1.919       .  S
Zn945       O953   2.081       .  S
Zn945       O956   1.979       .  S
Zn945       O957   2.058       .  S
O947        C959   1.276       .  A
O948        C960   1.280       .  A
O949        C961   1.274       .  A
O950        C959   1.273       .  A
O951        C961   1.273       .  A
O952        C960   1.274       .  A
O953        C962   1.283       .  A
O954        C963   1.280       .  A
O955        C962   1.271   1_554  A
O956        C963   1.270       .  A
O957        C964   1.285       .  A
O958        C964   1.274       .  A
C959       C1268   1.487       .  S
C960       C1187   1.467       .  S
C961       C1313   1.465       .  S
C963       C1156   1.485       .  S
C964       C1173   1.478       .  S
Zn965       O969   1.901       .  S
Zn965       O970   2.003       .  S
Zn965       O974   1.974       .  S
Zn965       O981   1.987       .  S
Zn966       O969   1.925       .  S
Zn966       O971   2.043       .  S
Zn966       O973   2.026       .  S
Zn967       O969   1.931       .  S
Zn967       O972   2.060       .  S
Zn967       O975   2.001       .  S
Zn967       O978   2.072       .  S
Zn968       O969   1.925       .  S
Zn968       O976   1.995       .  S
Zn968       O980   2.062       .  S
O970        C982   1.272       .  A
O971        C983   1.278       .  A
O972        C984   1.282       .  A
O973        C982   1.275       .  A
O974        C984   1.272       .  A
O975        C983   1.273       .  A
O976        C985   1.270       .  A
O977        C986   1.277   1_554  A
O978        C985   1.282       .  A
O979        C986   1.279   1_554  A
O980        C987   1.281       .  A
O981        C987   1.270       .  A
C982       C1257   1.490       .  S
C983       C1492   1.471       .  S
C984       C1114   1.474       .  S
C985       C1142   1.486       .  S
C986       C1103   1.470       .  S
C987       C1131   1.485       .  S
Zn988       O992   1.927       .  S
Zn988       O993   2.051       .  S
Zn988       O997   2.043       .  S
Zn988      O1004   2.018       .  S
Zn989       O992   1.923       .  S
Zn989       O994   2.049       .  S
Zn989       O996   2.003       .  S
Zn989      O1000   2.078       .  S
Zn990       O992   1.897       .  S
Zn990       O995   1.997       .  S
Zn990       O998   1.979       .  S
Zn990      O1001   2.011       .  S
Zn991       O992   1.911       .  S
Zn991       O999   2.061       .  S
Zn991      O1002   1.975       .  S
Zn991      O1003   2.028       .  S
O993       C1005   1.279       .  A
O994       C1006   1.281       .  A
O995       C1007   1.274       .  A
O996       C1005   1.274       .  A
O997       C1007   1.277       .  A
O998       C1006   1.274       .  A
O999       C1008   1.280       .  A
O1000      C1009   1.281       .  A
O1001      C1008   1.272       .  A
O1002      C1009   1.269       .  A
O1003      C1010   1.280       .  A
O1004      C1010   1.278       .  A
C1005      C1439   1.480       .  S
C1006      C1100   1.483       .  S
C1007      C1229   1.479       .  S
C1008      C1086   1.489       .  S
C1009      C1198   1.488       .  S
C1010      C1117   1.481       .  S
Zn1011     O1015   1.887       .  S
Zn1011     O1016   1.990       .  S
Zn1011     O1020   1.974       .  S
Zn1011     O1027   1.979       .  S
Zn1012     O1015   1.925       .  S
Zn1012     O1017   2.038       .  S
Zn1012     O1019   2.036       .  S
Zn1012     O1023   2.001       .  S
Zn1013     O1015   1.917       .  S
Zn1013     O1018   2.057       .  S
Zn1013     O1021   1.998       .  S
Zn1013     O1024   2.070       .  S
Zn1014     O1015   1.917       .  S
Zn1014     O1022   1.991       .  S
Zn1014     O1025   2.036       .  S
Zn1014     O1026   2.069       .  S
O1016      C1028   1.273       .  A
O1017      C1029   1.277       .  A
O1018      C1030   1.282       .  A
O1019      C1028   1.274       .  A
O1020      C1030   1.270       .  A
O1021      C1029   1.276       .  A
O1022      C1031   1.270       .  A
O1023      C1032   1.276       .  A
O1024      C1031   1.281       .  A
O1025      C1032   1.281       .  A
O1026      C1033   1.281       .  A
O1027      C1033   1.269       .  A
C1028      C1478   1.492       .  S
C1029      C1369   1.492       .  S
C1030      C1061   1.474       .  S
C1031      C1128   1.483       .  S
C1032      C1072   1.471       .  S
C1033      C1215   1.489       .  S
Zn1034     O1038   1.917       .  S
Zn1034     O1039   1.979       .  S
Zn1034     O1043   2.024       .  S
Zn1034     O1050   2.065       .  S
Zn1035     O1038   1.922       .  S
Zn1035     O1040   2.007       .  S
Zn1035     O1042   2.073       .  S
Zn1035     O1046   2.066       .  S
Zn1036     O1038   1.928       .  S
Zn1036     O1041   2.002       .  S
Zn1036     O1044   2.045       .  S
Zn1036     O1047   2.042       .  S
Zn1037     O1038   1.885       .  S
Zn1037     O1045   1.982       .  S
Zn1037     O1048   1.968       .  S
Zn1037     O1049   2.002       .  S
O1039      C1051   1.267       .  A
O1040      C1052   1.276       .  A
O1041      C1053   1.275       .  A
O1042      C1051   1.282       .  A
O1043      C1053   1.280       .  A
O1044      C1052   1.278       .  A
O1045      C1054   1.274       .  A
O1046      C1055   1.283       .  A
O1047      C1054   1.276       .  A
O1048      C1055   1.270       .  A
O1049      C1056   1.270       .  A
O1050      C1056   1.280       .  A
C1051      C1159   1.483       .  S
C1052      C1425   1.482       .  S
C1053      C1075   1.473       .  S
C1054      C1327   1.490       .  S
C1055      C1058   1.483       .  S
C1056      C1089   1.482       .  S
C1057      C1058   1.401       .  A
C1057      C1062   1.403       .  A
C1057      H1064   1.084       .  S
C1058      C1059   1.422       .  A
C1059      C1060   1.401       .  A
C1059      N1066   1.435       .  S
C1060      C1061   1.397       .  A
C1060      H1065   1.084       .  S
C1061      C1062   1.418       .  A
C1062      N1063   1.436       .  S
N1063      O1067   1.262       .  A
N1063      O1068   1.262       .  A
N1066      O1069   1.262       .  A
N1066      O1070   1.263       .  A
C1071      C1072   1.399       .  A
C1071      C1076   1.406       .  A
C1071      H1078   1.084       .  S
C1072      C1073   1.417       .  A
C1073      C1074   1.402       .  A
C1073      N1080   1.443       .  S
N1077      O1081   1.263   1_556  A
N1077      O1082   1.262       .  A
N1080      O1083   1.262       .  A
N1080      O1084   1.263       .  A
C1085      C1086   1.404       .  A
C1085      C1090   1.409       .  A
C1085      H1092   1.084       .  S
C1086      C1087   1.418       .  A
C1087      C1088   1.411       .  A
C1087      N1094   1.439       .  S
C1088      C1089   1.403       .  A
C1088      H1093   1.084       .  S
C1089      C1090   1.418       .  A
C1090      N1091   1.442       .  S
N1091      O1095   1.263       .  A
N1091      O1096   1.262       .  A
N1094      O1097   1.262       .  A
N1094      O1098   1.263       .  A
C1099      C1100   1.409       .  A
C1099      C1104   1.404       .  A
C1099      H1106   1.083       .  S
C1100      C1101   1.412       .  A
C1101      C1102   1.401       .  A
C1101      N1108   1.433       .  S
C1102      C1103   1.401       .  A
C1102      H1107   1.082       .  S
C1103      C1104   1.412       .  A
C1104      N1105   1.442       .  S
N1105      O1109   1.263       .  A
N1105      O1110   1.263       .  A
N1108      O1111   1.263       .  A
N1108      O1112   1.262       .  A
C1113      C1114   1.405       .  A
C1113      C1118   1.398       .  A
C1113      H1120   1.085       .  S
C1114      C1115   1.413       .  A
C1115      C1116   1.407       .  A
C1115      N1122   1.441       .  S
C1116      C1117   1.409       .  A
C1116      H1121   1.083       .  S
C1117      C1118   1.410       .  A
C1118      N1119   1.433       .  S
N1119      O1123   1.262       .  A
N1119      O1124   1.262       .  A
N1122      O1125   1.263       .  A
N1122      O1126   1.263       .  A
C1127      C1128   1.408       .  A
C1127      C1132   1.406       .  A
C1127      H1134   1.081       .  S
C1128      C1129   1.413       .  A
C1129      C1130   1.408       .  A
C1129      N1136   1.441       .  S
C1130      C1131   1.410       .  A
C1130      H1135   1.084       .  S
C1131      C1132   1.411       .  A
C1132      N1133   1.441       .  S
N1133      O1137   1.263       .  A
N1133      O1138   1.263       .  A
N1136      O1139   1.263       .  A
N1136      O1140   1.263       .  A
C1141      C1142   1.392       .  A
C1141      C1146   1.402       .  A
C1141      H1148   1.084       .  S
C1142      C1143   1.423       .  A
C1144      H1149   1.083       .  S
C1145      C1146   1.422       .  A
C1146      N1147   1.426       .  S
N1147      O1151   1.262       .  A
N1147      O1152   1.262       .  A
N1150      O1153   1.263       .  A
N1150      O1154   1.262       .  A
C1155      C1156   1.396       .  A
C1155      C1160   1.404       .  A
C1155      H1162   1.084       .  S
C1156      C1157   1.422       .  A
C1157      C1158   1.404       .  A
C1157      N1164   1.437       .  S
C1158      C1159   1.397       .  A
C1158      H1163   1.084       .  S
C1159      C1160   1.422       .  A
C1160      N1161   1.432       .  S
N1161      O1165   1.263       .  A
N1161      O1166   1.262       .  A
N1164      O1167   1.260       .  A
N1164      O1168   1.263       .  A
C1169      C1170   1.399       .  A
C1169      C1174   1.401       .  A
C1169      H1176   1.084       .  S
C1170      C1171   1.419       .  A
C1171      C1172   1.404       .  A
C1171      N1178   1.440       .  S
C1172      C1173   1.401       .  A
C1172      H1177   1.083       .  S
C1173      C1174   1.420       .  A
C1174      N1175   1.439       .  S
N1175      O1179   1.263       .  A
N1175      O1180   1.261       .  A
N1178      O1181   1.261       .  A
N1178      O1182   1.263       .  A
C1183      C1184   1.412       .  A
C1183      C1188   1.407       .  A
C1183      H1190   1.084       .  S
C1184      C1185   1.407       .  A
C1185      C1186   1.392       .  A
C1185      N1192   1.429       .  S
C1186      C1187   1.397       .  A
C1186      H1191   1.079       .  S
C1187      C1188   1.414       .  A
C1188      N1189   1.445       .  S
N1189      O1193   1.263       .  A
N1189      O1194   1.261       .  A
N1192      O1195   1.260       .  A
N1192      O1196   1.262       .  A
C1197      C1198   1.399       .  A
C1197      C1202   1.406       .  A
C1197      H1204   1.084       .  S
C1198      C1199   1.422       .  A
C1199      C1200   1.405       .  A
C1199      N1206   1.438       .  S
C1200      C1201   1.398       .  A
C1200      H1205   1.084       .  S
C1201      C1202   1.420       .  A
C1202      N1203   1.433       .  S
N1203      O1207   1.263       .  A
N1203      O1208   1.261       .  A
N1206      O1209   1.262       .  A
N1206      O1210   1.263       .  A
C1211      C1212   1.414       .  A
C1211      C1216   1.408       .  A
C1211      H1218   1.083       .  S
C1212      C1213   1.408       .  A
C1213      C1214   1.402       .  A
C1213      N1220   1.429       .  S
C1214      C1215   1.411       .  A
C1214      H1219   1.083       .  S
C1215      C1216   1.412       .  A
C1216      N1217   1.438       .  S
N1217      O1221   1.263       .  A
N1217      O1222   1.263       .  A
N1220      O1223   1.262       .  A
N1220      O1224   1.262       .  A
C1225      C1226   1.402       .  A
C1225      C1230   1.396       .  A
C1225      H1232   1.085       .  S
C1226      C1227   1.417       .  A
C1227      C1228   1.412       .  A
C1227      N1234   1.437       .  S
C1228      C1229   1.406       .  A
C1228      H1233   1.084       .  S
C1229      C1230   1.414       .  A
C1230      N1231   1.440       .  S
N1231      O1235   1.263       .  A
N1231      O1236   1.263       .  A
N1234      O1237   1.261       .  A
N1234      O1238   1.263       .  A
C1239      C1240   1.402       .  A
C1239      C1244   1.392   1_545  A
C1239      H1246   1.084       .  S
C1240      C1241   1.417       .  A
C1241      C1242   1.410   1_545  A
C1241      N1248   1.432       .  S
C1242      C1243   1.406       .  A
C1242      H1247   1.084       .  S
C1243      C1244   1.416       .  A
C1244      N1245   1.435       .  S
N1245      O1249   1.263       .  A
N1245      O1250   1.262       .  A
N1248      O1251   1.262       .  A
N1248      O1252   1.262       .  A
C1253      C1254   1.400       .  A
C1253      C1258   1.398       .  A
C1253      H1260   1.085       .  S
C1254      C1255   1.413       .  A
C1255      C1256   1.408       .  A
C1256      C1257   1.410       .  A
C1256      H1261   1.082       .  S
C1257      C1258   1.416       .  A
C1258      N1259   1.431       .  S
N1259      O1263   1.262       .  A
N1259      O1264   1.262       .  A
N1262      O1265   1.263       .  A
N1262      O1266   1.263       .  A
C1267      C1268   1.406   1_554  A
C1267      H1274   1.084       .  S
C1268      C1269   1.422       .  A
C1269      N1276   1.436       .  S
C1270      C1271   1.403       .  A
C1270      H1275   1.084       .  S
C1271      C1272   1.405       .  A
C1272      N1273   1.430       .  S
N1273      O1277   1.262       .  A
N1273      O1278   1.262       .  A
N1276      O1279   1.262       .  A
N1276      O1280   1.263       .  A
C1281      C1282   1.411       .  A
C1281      C1286   1.402       .  A
C1281      H1288   1.083       .  S
C1282      C1283   1.417       .  A
C1283      C1284   1.401       .  A
C1283      N1290   1.434       .  S
C1284      C1285   1.401       .  A
C1284      H1289   1.084       .  S
C1285      C1286   1.410       .  A
C1286      N1287   1.443       .  S
N1287      O1291   1.263       .  A
N1287      O1292   1.263       .  A
N1290      O1293   1.262       .  A
N1290      O1294   1.262       .  A
C1295      C1296   1.403       .  A
C1295      C1300   1.402       .  A
C1295      H1302   1.084       .  S
C1296      C1297   1.411       .  A
C1297      C1298   1.399       .  A
C1297      N1304   1.435       .  S
C1298      C1299   1.405       .  A
C1298      H1303   1.084       .  S
C1299      C1300   1.414       .  A
C1300      N1301   1.435       .  S
N1301      O1305   1.262       .  A
N1301      O1306   1.262       .  A
N1304      O1307   1.262       .  A
N1304      O1308   1.262       .  A
C1309      C1310   1.408       .  A
C1309      C1314   1.399   1_455  A
C1309      H1316   1.083       .  S
C1310      C1311   1.417       .  A
C1311      C1312   1.403   1_455  A
C1311      N1318   1.428       .  S
C1312      C1313   1.398       .  A
C1312      H1317   1.084       .  S
C1313      C1314   1.413       .  A
C1314      N1315   1.444       .  S
N1315      O1319   1.263       .  A
N1315      O1320   1.262       .  A
N1318      O1321   1.261       .  A
N1318      O1322   1.262       .  A
C1323      C1324   1.409       .  A
C1323      C1328   1.412       .  A
C1323      H1330   1.083       .  S
C1324      C1325   1.418       .  A
C1325      C1326   1.391       .  A
C1325      N1332   1.435       .  S
C1326      C1327   1.403       .  A
C1326      H1331   1.084       .  S
C1327      C1328   1.419       .  A
C1328      N1329   1.436       .  S
N1329      O1333   1.263       .  A
N1329      O1334   1.263       .  A
N1332      O1335   1.263       .  A
N1332      O1336   1.262       .  A
C1337      C1338   1.397       .  A
C1337      C1342   1.402       .  A
C1337      H1344   1.084       .  S
C1338      C1339   1.419       .  A
C1339      N1346   1.443       .  S
C1340      H1345   1.083       .  S
C1341      C1342   1.417       .  A
C1342      N1343   1.439       .  S
N1343      O1347   1.262       .  A
N1343      O1348   1.263       .  A
N1346      O1349   1.263       .  A
C1351      C1352   1.408       .  A
C1351      C1356   1.411   1_655  A
C1351      H1358   1.083       .  S
C1352      C1353   1.418       .  A
C1353      C1354   1.392   1_655  A
C1353      N1360   1.429       .  S
C1354      C1355   1.393       .  A
C1354      H1359   1.085       .  S
C1355      C1356   1.416       .  A
C1356      N1357   1.443       .  S
N1357      O1361   1.263       .  A
N1357      O1362   1.262       .  A
N1360      O1363   1.263       .  A
N1360      O1364   1.262       .  A
C1365      C1366   1.408       .  A
C1365      C1370   1.409       .  A
C1365      H1372   1.083       .  S
C1366      C1367   1.416       .  A
C1367      C1368   1.392       .  A
C1367      N1374   1.433       .  S
C1368      C1369   1.405       .  A
C1368      H1373   1.084       .  S
C1369      C1370   1.419       .  A
C1370      N1371   1.434       .  S
N1371      O1375   1.263       .  A
N1371      O1376   1.262       .  A
N1374      O1377   1.262       .  A
N1374      O1378   1.262       .  A
C1379      C1380   1.405       .  A
C1379      C1384   1.396       .  A
C1379      H1386   1.084       .  S
C1380      C1381   1.410       .  A
C1381      C1382   1.404       .  A
C1381      N1388   1.440       .  S
C1382      C1383   1.409       .  A
C1382      H1387   1.084       .  S
C1383      C1384   1.410       .  A
C1384      N1385   1.433       .  S
N1385      O1389   1.262       .  A
N1385      O1390   1.262       .  A
N1388      O1391   1.263       .  A
N1388      O1392   1.263       .  A
C1393      C1394   1.397       .  A
C1393      C1398   1.400       .  A
C1393      H1400   1.084       .  S
C1394      C1395   1.412       .  A
C1395      C1396   1.402       .  A
C1395      N1402   1.436       .  S
C1396      C1397   1.407       .  A
C1396      H1401   1.083       .  S
C1397      C1398   1.422       .  A
C1398      N1399   1.435       .  S
N1399      O1403   1.263       .  A
N1399      O1404   1.261       .  A
N1402      O1405   1.262       .  A
N1402      O1406   1.263       .  A
C1407      C1408   1.398       .  A
C1407      C1412   1.404       .  A
C1407      H1414   1.084       .  S
C1408      C1409   1.414       .  A
C1409      C1410   1.399       .  A
C1409      N1416   1.433       .  S
C1410      C1411   1.404       .  A
C1410      H1415   1.084       .  S
C1411      C1412   1.424       .  A
C1412      N1413   1.432       .  S
N1413      O1417   1.262       .  A
N1413      O1418   1.262       .  A
N1416      O1419   1.260       .  A
N1416      O1420   1.262       .  A
C1421      C1422   1.403       .  A
C1421      C1426   1.410   1_565  A
C1421      H1428   1.084       .  S
C1422      C1423   1.411       .  A
C1423      C1424   1.398   1_565  A
C1423      N1430   1.437       .  S
C1424      C1425   1.403       .  A
C1424      H1429   1.085       .  S
C1425      C1426   1.418       .  A
C1426      N1427   1.436       .  S
N1427      O1431   1.263       .  A
N1427      O1432   1.262       .  A
N1430      O1433   1.262       .  A
N1430      O1434   1.262       .  A
C1435      C1436   1.405       .  A
C1435      C1440   1.406   1_455  A
C1435      H1442   1.082       .  S
C1436      C1437   1.413       .  A
C1437      C1438   1.405   1_455  A
C1437      N1444   1.439       .  S
C1438      C1439   1.406       .  A
C1438      H1443   1.084       .  S
C1439      C1440   1.415       .  A
C1440      N1441   1.440       .  S
N1441      O1445   1.263   1_655  A
N1441      O1446   1.262       .  A
N1444      O1447   1.262       .  A
N1444      O1448   1.263       .  A
C1449      C1450   1.400       .  A
C1449      C1454   1.404       .  A
C1449      H1456   1.084       .  S
C1450      C1451   1.420       .  A
C1451      C1452   1.413       .  A
C1451      N1458   1.443       .  S
C1452      C1453   1.402       .  A
C1452      H1457   1.083       .  S
C1453      C1454   1.417       .  A
C1454      N1455   1.443       .  S
N1455      O1459   1.263       .  A
N1455      O1460   1.263       .  A
N1458      O1461   1.262       .  A
N1458      O1462   1.263       .  A
C1463      C1464   1.412       .  A
C1463      C1468   1.408       .  A
C1463      H1470   1.084       .  S
C1464      C1465   1.410       .  A
C1465      C1466   1.400       .  A
C1465      N1472   1.430       .  S
C1466      C1467   1.410       .  A
C1466      H1471   1.084       .  S
C1467      C1468   1.413       .  A
C1468      N1469   1.434       .  S
N1469      O1473   1.263       .  A
N1469      O1474   1.262       .  A
N1472      O1475   1.262       .  A
N1472      O1476   1.262       .  A
C1477      C1478   1.408       .  A
C1477      C1482   1.399   1_545  A
C1477      H1484   1.083       .  S
C1478      C1479   1.419       .  A
C1479      C1480   1.406   1_545  A
C1479      N1486   1.432       .  S
C1480      C1481   1.400       .  A
C1480      H1485   1.084       .  S
C1481      C1482   1.412       .  A
C1482      N1483   1.443       .  S
N1483      O1487   1.263       .  A
N1483      O1488   1.262       .  A
N1486      O1489   1.262       .  A
N1486      O1490   1.262       .  A
C1491      C1492   1.404       .  A
C1491      C1496   1.407   1_655  A
C1491      H1498   1.084       .  S
C1492      C1493   1.411       .  A
C1493      C1494   1.402   1_655  A
C1493      N1500   1.442       .  S
C1494      C1495   1.407       .  A
C1494      H1499   1.083       .  S
C1495      C1496   1.416       .  A
C1496      N1497   1.437       .  S
N1497      O1501   1.263       .  A
N1497      O1502   1.262       .  A
N1500      O1503   1.262       .  A
N1500      O1504   1.263       .  A
C1505      C1510   1.398       .  A
C1507      C1508   1.405       .  A
C1508      C1509   1.411       .  A
C1508      H1513   1.083       .  S
C1509      C1510   1.417       .  A
C1510      N1511   1.432       .  S
N1511      O1515   1.262       .  A
N1511      O1516   1.262       .  A
N1514      O1517   1.262       .  A
C1519      C1520   1.403       .  A
C1519      C1524   1.396       .  A
C1519      H1526   1.085       .  S
C1520      C1521   1.414       .  A
C1521      C1522   1.406       .  A
C1521      N1528   1.441       .  S
C1522      C1523   1.407       .  A
C1522      H1527   1.084       .  S
C1523      C1524   1.412       .  A
C1524      N1525   1.433       .  S
N1525      O1529   1.262       .  A
N1525      O1530   1.262       .  A
N1528      O1531   1.261       .  A
N1528      O1532   1.263       .  A
C1533      C1534   1.408       .  A
C1533      C1538   1.420       .  A
C1533      H1540   1.083       .  S
C1534      C1535   1.412       .  A
C1535      C1536   1.392       .  A
C1535      N1542   1.438       .  S
C1536      C1537   1.403       .  A
C1536      H1541   1.085       .  S
C1537      C1538   1.421       .  A
C1538      N1539   1.439       .  S
N1539      O1543   1.263       .  A
N1539      O1544   1.262       .  A
N1542      O1545   1.262       .  A
N1542      O1546   1.263       .  A
C1547      C1548   1.408       .  A
C1547      C1552   1.401       .  A
C1547      H1554   1.084       .  S
C1548      C1549   1.414       .  A
C1549      C1550   1.409       .  A
C1549      N1556   1.436       .  S
C1550      C1551   1.412       .  A
C1550      H1555   1.083       .  S
C1551      C1552   1.413       .  A
C1552      N1553   1.435       .  S
N1553      O1557   1.262       .  A
N1553      O1558   1.263       .  A
N1556      O1560   1.263       .  A
