geometry optimzed in LAMMPS
_audit_creation_date              2020-12-01 
_audit_creation_method            'lammps2cif' 
_symmetry_space_group_name_H-M    'P1' 
_symmetry_Int_Tables_number       1 
_symmetry_cell_setting            triclinic 
loop_ 
_symmetry_equiv_pos_as_xyz 
  x,y,z 
_cell_length_a                    36.29719327 
_cell_length_b                    34.55326801239963 
_cell_length_c                    54.765399048906474 
_cell_angle_alpha                 87.80381571929117 
_cell_angle_beta                  95.32027085295381 
_cell_angle_gamma                 121.3480231723211 
loop_ 
_atom_site_label 
_atom_site_type_symbol 
_atom_site_fract_x 
_atom_site_fract_y 
_atom_site_fract_z 
_atom_site_charge 
O1          O  0.01767047  0.97204432  0.39851422    -0.79500
O2          O  0.04463373  0.98499088  0.28575361    -0.64200
O3          O  0.04636097  0.01439605  0.35269758    -1.10800
C4          C  0.90401435  0.98036839  0.32755657     1.07400
O5          O  0.01770335  0.02715383  0.27240471    -0.77400
O6          O  0.99298647  0.06731383  0.30341340    -0.65000
Ni7        Ni  0.06549110  0.98867772  0.37883493     1.34900
C8          C  0.00389447  0.08349488  0.32506905     0.86100
O9          O  0.10616532  0.01683505  0.32282975    -0.77900
O10         O  0.11629081  0.00387541  0.36276824    -0.88200
C11         C  0.03502967  0.00443964  0.26846099     0.85700
O12         O  0.03692266  0.92800718  0.36622294    -0.66400
O13         O  0.91578625  0.98867741  0.30583897    -0.85700
C14         C  0.02833228  0.91285586  0.34437912     0.86500
C15         C  0.12884291  0.01440863  0.34125013     1.08100
H16         H  0.96940062  0.94984303  0.31547417     0.39900
O17         O  0.98745109  0.98242022  0.31708680    -1.08400
O18         O  0.00397350  0.06065417  0.34388288    -0.65000
Ni19       Ni  0.98709941  0.99809499  0.35011075     1.26300
O20         O  0.03065199  0.93672174  0.32560476    -0.65200
O21         O  0.92764009  0.98096579  0.34639013    -0.77500
C22         C  0.99747507  0.99233151  0.40142306     0.85900
O23         O  0.98850808  0.01182077  0.38383381    -0.64700
Ni24       Ni  0.96792110  0.00717230  0.29066978     1.27400
Ni25       Ni  0.04666773  0.99904311  0.31949679     1.26100
H26         H  0.06462639  0.04692413  0.35449800     0.40500
O27         O  0.02370013  0.47286086  0.39776183    -0.79500
O28         O  0.04466004  0.48654302  0.28427882    -0.64200
O29         O  0.05068968  0.51553313  0.35194173    -1.10800
C30         C  0.90768576  0.48256871  0.33022213     1.07400
O31         O  0.01745861  0.52922486  0.27250426    -0.77400
O32         O  0.99363240  0.56868663  0.30462535    -0.65000
Ni33       Ni  0.07036565  0.48909660  0.37731980     1.34900
C34         C  0.00661273  0.58534087  0.32615018     0.86100
O35         O  0.10791099  0.51679904  0.32053583    -0.77900
O36         O  0.11994966  0.50383869  0.36025401    -0.88200
C37         C  0.03510968  0.50723166  0.26766710     0.85700
O38         O  0.04060313  0.42851543  0.36449565    -0.66400
O39         O  0.91753757  0.48957131  0.30810372    -0.85700
C40         C  0.03050987  0.41335851  0.34261944     0.86500
C41         C  0.13129720  0.51414617  0.33849712     1.08100
H42         H  0.97139254  0.45162154  0.31609298     0.39900
O43         O  0.98978072  0.48419453  0.31749036    -1.08400
O44         O  0.00912601  0.56311398  0.34468883    -0.65000
Ni45       Ni  0.99192510  0.50042529  0.35081300     1.26300
O46         O  0.03208070  0.43736690  0.32403514    -0.65200
O47         O  0.93278366  0.48428863  0.34854396    -0.77500
C48         C  0.00604694  0.49523210  0.40191849     0.85900
O49         O  0.99616131  0.51488960  0.38481667    -0.64700
Ni50       Ni  0.96869821  0.50862686  0.29177593     1.27400
Ni51       Ni  0.04868390  0.50002531  0.31842853     1.26100
H52         H  0.06948459  0.54801166  0.35371284     0.40500
O53         O  0.53619224  0.99298123  0.39555996    -0.79500
O54         O  0.55446249  0.00250121  0.28296250    -0.64200
O55         O  0.56198517  0.03575693  0.34990196    -1.10800
C56         C  0.41957523  0.00380130  0.32860904     1.07400
O57         O  0.52837204  0.04585686  0.27021319    -0.77400
O58         O  0.50975038  0.08970715  0.30262374    -0.65000
Ni59       Ni  0.58448179  0.01328198  0.37591868     1.34900
C60         C  0.52025092  0.10532259  0.32439545     0.86100
O61         O  0.61850717  0.03433668  0.31879098    -0.77900
O62         O  0.63543947  0.03240650  0.35930109    -0.88200
C63         C  0.54511659  0.02266825  0.26592387     0.85700
O64         O  0.55993698  0.95273600  0.36386452    -0.66400
O65         O  0.43089011  0.01356850  0.30681355    -0.85700
C66         C  0.54562268  0.93462518  0.34269858     0.86500
C67         C  0.64449572  0.03791775  0.33704428     1.08100
H68         H  0.48184220  0.97066007  0.31418013     0.39900
O69         O  0.50065731  0.00316389  0.31574131    -1.08400
O70         O  0.51913184  0.08178571  0.34308877    -0.65000
Ni71       Ni  0.50282896  0.01941979  0.34907250     1.26300
O72         O  0.54211618  0.95567894  0.32383050    -0.65200
O73         O  0.44333081  0.00233479  0.34681657    -0.77500
C74         C  0.51786057  0.01446829  0.40006286     0.85900
O75         O  0.50706983  0.03369401  0.38313511    -0.64700
Ni76       Ni  0.48095830  0.02901855  0.29007994     1.27400
Ni77       Ni  0.55934590  0.01816635  0.31679247     1.26100
H78         H  0.58010246  0.06840330  0.35080769     0.40500
O79         O  0.53435668  0.49062055  0.39756053    -0.79500
O80         O  0.55654519  0.50116954  0.28593753    -0.64200
O81         O  0.56292852  0.53488612  0.35265286    -1.10800
C82         C  0.42014776  0.50100270  0.32953328     1.07400
O83         O  0.53220391  0.54598802  0.27344692    -0.77400
O84         O  0.50876673  0.58800308  0.30456619    -0.65000
Ni85       Ni  0.58392739  0.51154908  0.37897598     1.34900
C86         C  0.51990266  0.60427136  0.32623116     0.86100
O87         O  0.62009411  0.53256902  0.32245146    -0.77900
O88         O  0.63573976  0.53102471  0.36320943    -0.88200
C89         C  0.54658384  0.52072603  0.26881298     0.85700
O90         O  0.56006054  0.45125649  0.36675117    -0.66400
O91         O  0.43143867  0.50959999  0.30769241    -0.85700
C92         C  0.54599670  0.43343314  0.34552739     0.86500
C93         C  0.64549624  0.53621998  0.34108496     1.08100
H94         H  0.48366100  0.47009722  0.31667263     0.39900
O95         O  0.50249681  0.50261835  0.31809264    -1.08400
O96         O  0.52051988  0.58153687  0.34497382    -0.65000
Ni97       Ni  0.50384884  0.51902873  0.35115115     1.26300
O98         O  0.54294459  0.45470607  0.32670672    -0.65200
O99         O  0.44438548  0.50207407  0.34820820    -0.77500
C100        C  0.51612089  0.51225893  0.40190911     0.85900
O101        O  0.50708802  0.53301577  0.38508840    -0.64700
Ni102      Ni  0.48295699  0.52750261  0.29195345     1.27400
Ni103      Ni  0.56107540  0.51721515  0.31968850     1.26100
H104        H  0.58126918  0.56750147  0.35366401     0.40500
O105        O  0.06710405  0.03466197  0.06390338    -0.79500
O106        O  0.04884152  0.03561630  0.94921747    -0.64200
O107        O  0.02302737  0.01845477  0.01645334    -1.10800
C108        C  0.03723526  0.89103171  0.00885397     1.07400
O109        O  0.00068585  0.96356301  0.94031026    -0.77400
O110        O  0.95828095  0.90199959  0.97554909    -0.65000
Ni111      Ni  0.05245400  0.06764571  0.03964942     1.34900
C112        C  0.94483041  0.90063225  0.99632452     0.86100
O113        O  0.02822544  0.07890034  0.97938750    -0.77900
O114        O  0.03975560  0.10514301  0.01809776    -0.88200
C115        C  0.02522093  0.00417780  0.93362960     0.85700
O116        O  0.10936867  0.09567675  0.02895767    -0.66400
O117        O  0.02787734  0.89249314  0.98595376    -0.85700
C118        C  0.12328154  0.09612020  0.00849288     0.86500
C119        C  0.03117387  0.10668883  0.99511680     1.08100
H120        H  0.07549074  0.98966445  0.98768492     0.39900
O121        O  0.04505290  0.97897106  0.98779883    -1.08400
O122        O  0.96941212  0.92521475  0.01459962    -0.65000
Ni123      Ni  0.03128936  0.96833328  0.02122072     1.26300
O124        O  0.09908073  0.07152635  0.99015443    -0.65200
O125        O  0.04096786  0.91903730  0.02475521    -0.77500
C126        C  0.04291851  0.99407899  0.07061648     0.85900
O127        O  0.02013304  0.96221083  0.05513297    -0.64700
Ni128      Ni  0.01512307  0.93010099  0.96453154     1.27400
Ni129      Ni  0.03727307  0.02927882  0.98308077     1.26100
H130        H  0.99250112  0.00745772  0.01642390     0.40500
O131        O  0.00142700  0.51245585  0.93647397    -0.79500
O132        O  0.05000397  0.51895755  0.05276008    -0.64200
O133        O  0.02832742  0.49435045  0.98346803    -1.10800
C134        C  0.89059797  0.38089430  0.99951080     1.07400
O135        O  0.00209634  0.45084654  0.06637259    -0.77400
O136        O  0.99695955  0.40171841  0.02656258    -0.65000
Ni137      Ni  0.04651378  0.54533212  0.96217542     1.34900
C138        C  0.99417207  0.39191035  0.00408376     0.86100
O139        O  0.10035546  0.54565714  0.01607810    -0.77900
O140        O  0.09627489  0.58498009  0.98375832    -0.88200
C141        C  0.03338482  0.49117023  0.06998840     0.85700
O142        O  0.01210177  0.56361726  0.97658863    -0.66400
O143        O  0.91186345  0.37593409  0.01774558    -0.85700
C144        C  0.01645291  0.57391081  0.99910182     0.86500
C145        C  0.11689274  0.57990299  0.00235714     1.08100
H146        H  0.96487063  0.48499777  0.02295391     0.39900
O147        O  0.97811119  0.46829504  0.01882371    -1.08400
O148        O  0.97663755  0.40457338  0.98696480    -0.65000
Ni149      Ni  0.96717098  0.45482673  0.98430939     1.26300
O150        O  0.03191233  0.55867571  0.01597872    -0.65200
O151        O  0.90643434  0.41566348  0.98618020    -0.77500
C152        C  0.97169183  0.47140639  0.93263502     0.85900
O153        O  0.95728635  0.44272956  0.94968922    -0.64700
Ni154      Ni  0.95954218  0.41698980  0.03998499     1.27400
Ni155      Ni  0.03957668  0.50727211  0.01804295     1.26100
H156        H  0.04179383  0.47797686  0.97918449     0.40500
O157        O  0.50492710  0.01865380  0.93482454    -0.79500
O158        O  0.54316923  0.01553191  0.05107009    -0.64200
O159        O  0.52269448  0.99075354  0.98188471    -1.10800
C160        C  0.37728322  0.90476266  0.99440904     1.07400
O161        O  0.48588660  0.95297652  0.06384683    -0.77400
O162        O  0.46759722  0.89615599  0.02496941    -0.65000
Ni163      Ni  0.55228637  0.04039849  0.96004543     1.34900
C164        C  0.46487162  0.88523024  0.00269424     0.86100
O165        O  0.59426567  0.02929938  0.01636394    -0.77900
O166        O  0.60470406  0.06785397  0.98136991    -0.88200
C167        C  0.52207312  0.98939012  0.06796392     0.85700
O168        O  0.53394448  0.07693153  0.97366931    -0.66400
O169        O  0.39204662  0.89505778  0.01402499    -0.85700
C170        C  0.53632515  0.08643231  0.99612261     0.86500
C171        C  0.61849662  0.05899796  0.00168345     1.08100
H172        H  0.46498956  0.00014826  0.01869343     0.39900
O173        O  0.47203919  0.97753684  0.01550475    -1.08400
O174        O  0.45626875  0.90470558  0.98473325    -0.65000
Ni175      Ni  0.46148230  0.96355833  0.98100602     1.26300
O176        O  0.54062934  0.06344087  0.01365492    -0.65200
O177        O  0.40062222  0.93734117  0.98087468    -0.77500
C178        C  0.47105843  0.98027423  0.93005940     0.85900
O179        O  0.45262629  0.95130417  0.94648728    -0.64700
Ni180      Ni  0.44200043  0.92713356  0.03688850     1.27400
Ni181      Ni  0.53353076  0.00391384  0.01643730     1.26100
H182        H  0.52995535  0.96837500  0.97858695     0.40500
O183        O  0.56589391  0.54160913  0.06167003    -0.79500
O184        O  0.53528511  0.53589620  0.94754941    -0.64200
O185        O  0.51740318  0.52024907  0.01586922    -1.10800
C186        C  0.54564376  0.40163486  0.00775318     1.07400
O187        O  0.49268391  0.46196066  0.94064137    -0.77400
O188        O  0.46040563  0.39988097  0.97680361    -0.65000
Ni189      Ni  0.54467429  0.57034914  0.03834984     1.34900
C190        C  0.44688293  0.39899366  0.99747385     0.86100
O191        O  0.51239925  0.57611595  0.97882878    -0.77900
O192        O  0.52446446  0.60273617  0.01752236    -0.88200
C193        C  0.51156373  0.50251679  0.93302302     0.85700
O194        O  0.60032113  0.60361321  0.02568451    -0.66400
O195        O  0.53674625  0.40312310  0.98479496    -0.85700
C196        C  0.61340835  0.60477008  0.00482063     0.86500
C197        C  0.51297413  0.60241037  0.99478313     1.08100
H198        H  0.57317582  0.49862190  0.98593584     0.39900
O199        O  0.54230354  0.48467832  0.98661284    -1.08400
O200        O  0.47016290  0.42689350  0.01490566    -0.65000
Ni201      Ni  0.53104233  0.47374122  0.02043439     1.26300
O202        O  0.58910736  0.57808704  0.98709979    -0.65200
O203        O  0.54543638  0.42740035  0.02375569    -0.77500
C204        C  0.54359216  0.50144992  0.06949301     0.85900
O205        O  0.52199656  0.46802868  0.05472622    -0.64700
Ni206      Ni  0.51571021  0.43476343  0.96400104     1.27400
Ni207      Ni  0.52800239  0.53074426  0.98203876     1.26100
H208        H  0.48660648  0.50660850  0.01672058     0.40500
O209        O  0.99653851  0.02755067  0.60408872    -0.79500
O210        O  0.01087950  0.03057682  0.71679419    -0.64200
O211        O  0.98094825  0.98764080  0.65037448    -1.10800
C212        C  0.86667069  0.01502452  0.65343074     1.07400
O213        O  0.94248546  0.99042455  0.72610406    -0.77400
O214        O  0.88075447  0.93713092  0.69001152    -0.65000
Ni215      Ni  0.02419844  0.00620665  0.62788569     1.34900
C216        C  0.87213381  0.91942126  0.66878554     0.86100
O217        O  0.04356115  0.99649605  0.68800430    -0.77900
O218        O  0.05529524  0.98616591  0.64969597    -0.88200
C219        C  0.98294029  0.01326352  0.73247086     0.85700
O220        O  0.06324275  0.06709338  0.63923503    -0.66400
O221        O  0.86952145  0.00699680  0.67622228    -0.85700
C222        C  0.06654871  0.08909674  0.65815005     0.86500
C223        C  0.06315389  0.98768024  0.67292318     1.06900
H224        H  0.96538576  0.05573816  0.67739864     0.39900
O225        O  0.95265631  0.02325760  0.67732841    -1.08400
O226        O  0.89153853  0.94111906  0.65010261    -0.65000
Ni227      Ni  0.93717462  0.00293677  0.64376849     1.26300
O228        O  0.04092254  0.07199198  0.67514086    -0.65200
O229        O  0.89350248  0.01885378  0.63860462    -0.77500
C230        C  0.95735688  0.00408215  0.59545895     0.85900
O231        O  0.92693939  0.98532901  0.60964825    -0.64700
Ni232      Ni  0.90835897  0.99934648  0.69959646     1.27400
Ni233      Ni  0.99812931  0.01021676  0.68327758     1.26100
H234        H  0.96674313  0.95502808  0.65121396     0.40500
O235        O  0.98981475  0.49034017  0.72843466    -0.79500
O236        O  0.99121553  0.50536982  0.61537275    -0.64200
O237        O  0.97229357  0.51742475  0.68148941    -1.10800
C238        C  0.85264642  0.36851022  0.66833051     1.07400
O239        O  0.92192059  0.47732583  0.60301361    -0.77400
O240        O  0.86309902  0.46169127  0.63579985    -0.65000
Ni241      Ni  0.01866280  0.54147262  0.70685954     1.34900
C242        C  0.85982464  0.47326708  0.65685344     0.86100
O243        O  0.03060832  0.57447371  0.64797498    -0.77900
O244        O  0.05097531  0.59500631  0.68790500    -0.88200
C245        C  0.96102067  0.49374900  0.59833839     0.85700
O246        O  0.05254493  0.51820652  0.69632097    -0.66400
O247        O  0.85299078  0.37895187  0.64572625    -0.85700
C248        C  0.05350251  0.50196690  0.67613370     0.86500
C249        C  0.05434654  0.60305642  0.66502758     1.08100
H250        H  0.94780721  0.43146252  0.65082521     0.39900
O251        O  0.93675207  0.45155701  0.65088228    -1.08400
O252        O  0.88254666  0.47306705  0.67611271    -0.65000
Ni253      Ni  0.92603034  0.45606524  0.68387383     1.26300
O254        O  0.02648732  0.49470187  0.65758599    -0.65200
O255        O  0.88062926  0.39418357  0.68512371    -0.77500
C256        C  0.95090261  0.47175231  0.73396902     0.85900
O257        O  0.92013222  0.46235775  0.71766459    -0.64700
Ni258      Ni  0.88959306  0.42976481  0.62591004     1.27400
Ni259      Ni  0.98406241  0.51265873  0.64883785     1.26100
H260        H  0.96032133  0.53674816  0.68095430     0.40500
O261        O  0.43128061  0.99412004  0.59883693    -0.79500
O262        O  0.41667968  0.95714039  0.71412596    -0.64200
O263        O  0.44664154  0.00769387  0.65041045    -1.10800
C264        C  0.54886891  0.96338975  0.65659060     1.07400
O265        O  0.48020281  0.96654529  0.72881748    -0.77400
O266        O  0.53652338  0.03226531  0.69984681    -0.65000
Ni267      Ni  0.40034022  0.99441803  0.62558906     1.34900
C268        C  0.54812114  0.05546753  0.68051151     0.86100
O269        O  0.39629259  0.00788024  0.68605838    -0.77900
O270        O  0.36297827  0.99511845  0.64832479    -0.88200
C271        C  0.44275644  0.95894642  0.73175987     0.85700
O272        O  0.37450048  0.93065298  0.62873163    -0.66400
O273        O  0.55071861  0.97097998  0.67930019    -0.85700
C274        C  0.36331089  0.90849747  0.64841115     0.86500
C275        C  0.36616046  0.00461600  0.67090366     1.08100
H276        H  0.44779880  0.92379462  0.67497183     0.39900
O277        O  0.46579095  0.95628167  0.67715604    -1.08400
O278        O  0.53253404  0.03922986  0.65892281    -0.65000
Ni279      Ni  0.48246746  0.98333903  0.64568401     1.26300
O280        O  0.37973395  0.92579820  0.66969929    -0.65200
O281        O  0.51808962  0.95865890  0.64149285    -0.77500
C282        C  0.46992276  0.00522949  0.59607503     0.85900
O283        O  0.49673010  0.00941665  0.61390485    -0.64700
Ni284      Ni  0.51192303  0.96863926  0.70199048     1.27400
Ni285      Ni  0.43066177  0.98173165  0.68204653     1.26100
H286        H  0.46425824  0.04025106  0.65232218     0.40500
O287        O  0.43176011  0.47843211  0.60292519    -0.79500
O288        O  0.43343229  0.49183701  0.71748356    -0.64200
O289        O  0.44775813  0.52003193  0.64925705    -1.10800
C290        C  0.56922635  0.49909086  0.66664391     1.07400
O291        O  0.50333416  0.54080331  0.72594917    -0.77400
O292        O  0.56453740  0.58141128  0.69329541    -0.65000
Ni293      Ni  0.40009532  0.49109706  0.62470384     1.34900
C294        C  0.56392704  0.59769105  0.67220987     0.86100
O295        O  0.38972622  0.51478917  0.68273057    -0.77900
O296        O  0.36306483  0.50154289  0.64318570    -0.88200
C297        C  0.46576166  0.51453704  0.73297190     0.85700
O298        O  0.37444494  0.43082996  0.63694420    -0.66400
O299        O  0.56608510  0.50426151  0.68916737    -0.85700
C300        C  0.37218302  0.41577352  0.65859999     0.86500
C301        C  0.36129922  0.50994029  0.66538905     1.08100
H302        H  0.47364446  0.46210645  0.68282511     0.39900
O303        O  0.48516184  0.49434086  0.68181808    -1.08400
O304        O  0.53692558  0.57464855  0.65433367    -0.65000
Ni305      Ni  0.49575384  0.51055071  0.64846492     1.26300
O306        O  0.39543213  0.44026804  0.67721670    -0.65200
O307        O  0.54395514  0.50034112  0.64901880    -0.77500
C308        C  0.47098020  0.50288996  0.59792050     0.85900
O309        O  0.50164875  0.52438393  0.61439230    -0.64700
Ni310      Ni  0.53277160  0.52173833  0.70641049     1.27400
Ni311      Ni  0.43766883  0.50442042  0.68294483     1.26100
H312        H  0.45876333  0.55213902  0.64795343     0.40500
C313        C  0.65967190  0.17668720  0.68622554     0.18400
C314        C  0.69581947  0.17184336  0.68741310    -0.10700
C315        C  0.73723413  0.20999241  0.68618669    -0.11500
C316        C  0.74255334  0.25304987  0.68380176     0.20000
C317        C  0.70653744  0.25799058  0.68336645    -0.13600
C318        C  0.66512152  0.21984138  0.68457137    -0.11900
C319        C  0.78429626  0.29191260  0.68006675     0.01000
C320        C  0.81715662  0.32593922  0.67531028    -0.31900
C321        C  0.61704366  0.13704308  0.68510341     0.02300
C322        C  0.58339924  0.10127581  0.68310673    -0.33500
H323        H  0.69185299  0.13851658  0.68860428     0.13400
H324        H  0.76485759  0.20582257  0.68643068     0.13200
H325        H  0.71035880  0.29118612  0.68142224     0.13100
H326        H  0.63735190  0.22387683  0.68355982     0.12100
C327        C  0.24940619  0.79046546  0.64666308     0.18400
C328        C  0.23695024  0.74748911  0.63782774    -0.10700
C329        C  0.19451732  0.71137440  0.63955392    -0.11500
C330        C  0.16451165  0.71822636  0.65004619     0.20000
C331        C  0.17682901  0.76137441  0.65847789    -0.13600
C332        C  0.21917238  0.79742755  0.65674129    -0.11900
C333        C  0.12217562  0.68029565  0.65372864     0.01000
C334        C  0.08907298  0.64629036  0.65820638    -0.31900
C335        C  0.29314652  0.82773662  0.64594463     0.02300
C336        C  0.32751441  0.86280101  0.64666854    -0.33500
H337        H  0.26007763  0.74178601  0.62998158     0.13400
H338        H  0.18532553  0.67798345  0.63315427     0.13200
H339        H  0.15399054  0.76694784  0.66678299     0.13100
H340        H  0.22854006  0.83060817  0.66359300     0.12100
C341        C  0.67656963  0.48971246  0.65864721     0.18400
C342        C  0.67850633  0.45192899  0.66731415    -0.10700
C343        C  0.71717611  0.45153883  0.66758008    -0.11500
C344        C  0.75479726  0.48896209  0.65924474     0.20000
C345        C  0.75282316  0.52667043  0.65044050    -0.13600
C346        C  0.71412096  0.52706284  0.65017759    -0.11900
C347        C  0.79481412  0.48808664  0.65938116     0.01000
C348        C  0.82641801  0.48430449  0.65893823    -0.31900
C349        C  0.63677367  0.49078253  0.65928863     0.02300
C350        C  0.60465456  0.49301832  0.66127886    -0.33500
H351        H  0.65014086  0.42276972  0.67403660     0.13400
H352        H  0.71771703  0.42195951  0.67436366     0.13200
H353        H  0.78125042  0.55588762  0.64381328     0.13100
H354        H  0.71360264  0.55670183  0.64349243     0.12100
C355        C  0.24731991  0.50667748  0.67289337     0.18400
C356        C  0.21670540  0.47597872  0.68858585    -0.10700
C357        C  0.17580369  0.47154128  0.68857238    -0.11500
C358        C  0.16459041  0.49759664  0.67280473     0.20000
C359        C  0.19518283  0.52823525  0.65709390    -0.13600
C360        C  0.23605782  0.53267330  0.65710953    -0.11900
C361        C  0.12254847  0.49406192  0.67320614     0.01000
C362        C  0.08913302  0.49435315  0.67400487    -0.31900
C363        C  0.28954191  0.51060490  0.67244901     0.02300
C364        C  0.32368557  0.51225498  0.67067846    -0.33500
H365        H  0.22440574  0.45535276  0.70085246     0.13400
H366        H  0.15295611  0.44781359  0.70094336     0.13200
H367        H  0.18750564  0.54888728  0.64482946     0.13100
H368        H  0.25889579  0.55642675  0.64474077     0.12100
C369        C  0.67410693  0.72006096  0.66454711     0.18400
C370        C  0.71087285  0.71623127  0.66842618    -0.10700
C371        C  0.75257033  0.75469970  0.66792756    -0.11500
C372        C  0.75810327  0.79757422  0.66350156     0.20000
C373        C  0.72133183  0.80142237  0.65939842    -0.13600
C374        C  0.67956954  0.76289660  0.65991053    -0.11900
C375        C  0.80126025  0.83777934  0.66408177     0.01000
C376        C  0.83574858  0.87341082  0.66556240    -0.31900
C377        C  0.63126342  0.67997349  0.66592002     0.02300
C378        C  0.59801776  0.64390030  0.66813422    -0.33500
H379        H  0.70731741  0.68346679  0.67207696     0.13400
H380        H  0.78048654  0.75103519  0.67124249     0.13200
H381        H  0.72495216  0.83429197  0.65605510     0.13100
H382        H  0.65163982  0.76659824  0.65691844     0.12100
C383        C  0.17956071  0.21248165  0.66275547     0.18400
C384        C  0.21647197  0.21151202  0.67205384    -0.10700
C385        C  0.25779999  0.25085598  0.67229752    -0.11500
C386        C  0.26273691  0.29166577  0.66320901     0.20000
C387        C  0.22581857  0.29260995  0.65389975    -0.13600
C388        C  0.18451601  0.25328865  0.65365410    -0.11900
C389        C  0.30531029  0.33264296  0.66327835     0.01000
C390        C  0.33853320  0.36917054  0.66216722    -0.31900
C391        C  0.13701667  0.17135480  0.66197476     0.02300
C392        C  0.10303682  0.13518273  0.66075157    -0.33500
H393        H  0.21332853  0.18025827  0.67903507     0.13400
H394        H  0.28585641  0.24939786  0.67952055     0.13200
H395        H  0.22896795  0.32378587  0.64676977     0.13100
H396        H  0.15649700  0.25469708  0.64628121     0.12100
C397        C  0.74999381  0.00371578  0.63827350     0.18400
C398        C  0.71528774  0.96042843  0.63109715    -0.10700
C399        C  0.67243093  0.94955049  0.63203677    -0.11500
C400        C  0.66389577  0.98186789  0.64018826     0.20000
C401        C  0.69859270  0.02543871  0.64686462    -0.13600
C402        C  0.74141307  0.03629805  0.64593856    -0.11900
C403        C  0.61997941  0.97004443  0.64312786     0.01000
C404        C  0.58533710  0.96378326  0.64782321    -0.31900
C405        C  0.79398250  0.01308604  0.64003627     0.02300
C406        C  0.82918221  0.01714410  0.64428318    -0.33500
H407        H  0.72135711  0.93469442  0.62541578     0.13400
H408        H  0.64604261  0.91568334  0.62696173     0.13200
H409        H  0.69255696  0.05071813  0.65334580     0.13100
H410        H  0.76778894  0.06969351  0.65182030     0.12100
C411        C  0.25849122  0.00305482  0.68729933     0.18400
C412        C  0.25298459  0.04032472  0.68504587    -0.10700
C413        C  0.21172257  0.03410456  0.68561142    -0.11500
C414        C  0.17564448  0.99059041  0.68841342     0.20000
C415        C  0.18129254  0.95346406  0.69114995    -0.13600
C416        C  0.22256136  0.95969091  0.69061146    -0.11900
C417        C  0.13275190  0.98399932  0.68649633     0.01000
C418        C  0.09869271  0.98235566  0.68213259    -0.31900
C419        C  0.30002358  0.00840369  0.68424449     0.02300
C420        C  0.33230967  0.00924908  0.67949406    -0.33500
H421        H  0.28033269  0.07395273  0.68223274     0.13400
H422        H  0.20778016  0.06306379  0.68323393     0.13200
H423        H  0.15370462  0.91961541  0.69308285     0.13100
H424        H  0.22626995  0.93051697  0.69213012     0.12100
C425        C  0.46808693  0.51000441  0.80780005     0.18400
C426        C  0.46128201  0.47064944  0.82001114    -0.10700
C427        C  0.46992420  0.47121793  0.84554958    -0.11500
C428        C  0.48557919  0.51117080  0.85918931     0.20000
C429        C  0.49184209  0.55037444  0.84702994    -0.13600
C430        C  0.48319085  0.54980400  0.82147467    -0.11900
C431        C  0.49590207  0.51190173  0.88548918     0.01000
C432        C  0.50400923  0.50996366  0.90733852    -0.31900
C433        C  0.46207035  0.51024102  0.78122149     0.02300
C434        C  0.46074008  0.51139817  0.75900350    -0.33500
H435        H  0.44991814  0.43969465  0.80975442     0.13400
H436        H  0.46490566  0.44062141  0.85462078     0.13200
H437        H  0.50391780  0.58152030  0.85724855     0.13100
H438        H  0.48891050  0.58058986  0.81234396     0.12100
C439        C  0.47836959  0.77795200  0.98946852     0.18400
C440        C  0.44164870  0.73437657  0.98594929    -0.10700
C441        C  0.44633425  0.69701354  0.98338599    -0.11500
C442        C  0.48776430  0.70313023  0.98426594     0.20000
C443        C  0.52439778  0.74679256  0.98736880    -0.13600
C444        C  0.51972199  0.78407748  0.98994532    -0.11900
C445        C  0.49313272  0.66466277  0.98415910     0.01000
C446        C  0.50062308  0.63456103  0.98709954    -0.31900
C447        C  0.47380283  0.81616933  0.99347587     0.02300
C448        C  0.47018925  0.84807637  0.99750549    -0.33500
H449        H  0.40949537  0.72920791  0.98563371     0.13400
H450        H  0.41777132  0.66336986  0.98126561     0.13200
H451        H  0.55658586  0.75188552  0.98834548     0.13100
H452        H  0.54833197  0.81754861  0.99273749     0.12100
C453        C  0.54454961  0.20545911  0.01089551     0.18400
C454        C  0.57776251  0.24400851  0.00031363    -0.10700
C455        C  0.58261880  0.28639500  0.00360339    -0.11500
C456        C  0.55437859  0.29054170  0.01756154     0.20000
C457        C  0.52154457  0.25209748  0.02848277    -0.13600
C458        C  0.51668979  0.20963824  0.02519546    -0.11900
C459        C  0.55629104  0.33316827  0.01839410     0.01000
C460        C  0.55427973  0.36684157  0.01565631    -0.31900
C461        C  0.53880111  0.16172472  0.00655112     0.02300
C462        C  0.53606173  0.12637374  0.00205771    -0.33500
H463        H  0.59945268  0.24117579  0.98919164     0.13400
H464        H  0.60771821  0.31572684  0.99478222     0.13200
H465        H  0.49911514  0.25476865  0.03902091     0.13100
H466        H  0.49085046  0.18005218  0.03343255     0.12100
C467        C  0.42773018  0.95343356  0.80487105     0.18400
C468        C  0.42162095  0.98473787  0.81671748    -0.10700
C469        C  0.42588656  0.98764640  0.84242524    -0.11500
C470        C  0.43631241  0.95928779  0.85648568     0.20000
C471        C  0.44193596  0.92770704  0.84462102    -0.13600
C472        C  0.43767461  0.92480103  0.81896485    -0.11900
C473        C  0.44379432  0.96421068  0.88292444     0.01000
C474        C  0.45369276  0.96992676  0.90478726    -0.31900
C475        C  0.42685792  0.95262861  0.77839260     0.02300
C476        C  0.43075525  0.95373982  0.75660859    -0.33500
H477        H  0.41437527  0.00743549  0.80610036     0.13400
H478        H  0.42182260  0.01251403  0.85130384     0.13200
H479        H  0.45037655  0.90585495  0.85519690     0.13100
H480        H  0.44294127  0.90078249  0.81010870     0.12100
C481        C  0.78661604  0.25894550  0.99743999     0.18400
C482        C  0.77010198  0.24538838  0.02040056    -0.10700
C483        C  0.74303285  0.19944953  0.02520013    -0.11500
C484        C  0.73287110  0.16701304  0.00713728     0.20000
C485        C  0.75001371  0.18055909  0.98433157    -0.13600
C486        C  0.77707045  0.22649911  0.97952954    -0.11900
C487        C  0.69875814  0.12120450  0.01012435     0.01000
C488        C  0.66352018  0.08748145  0.00863921    -0.31900
C489        C  0.81692249  0.30579125  0.99333390     0.02300
C490        C  0.84813600  0.34338341  0.99351216    -0.33500
H491        H  0.77803145  0.27031310  0.03451954     0.13400
H492        H  0.72906266  0.18932497  0.04266643     0.13200
H493        H  0.74144617  0.15571490  0.97004741     0.13100
H494        H  0.79039101  0.23670684  0.96189512     0.12100
C495        C  0.26824150  0.79194757  0.98969548     0.18400
C496        C  0.24282989  0.77998140  0.00955911    -0.10700
C497        C  0.21840477  0.73462996  0.01628893    -0.11500
C498        C  0.21984576  0.70130957  0.00337223     0.20000
C499        C  0.24505414  0.71325006  0.98342699    -0.13600
C500        C  0.26942590  0.75856737  0.97668420    -0.11900
C501        C  0.19082119  0.65450202  0.00830672     0.01000
C502        C  0.15966986  0.61689611  0.00831663    -0.31900
C503        C  0.29918937  0.83858201  0.98566182     0.02300
C504        C  0.33293550  0.87406002  0.98684946    -0.33500
H505        H  0.24264823  0.80574477  0.02013227     0.13400
H506        H  0.19821487  0.72550677  0.03140798     0.13200
H507        H  0.24560617  0.68754154  0.97301474     0.13100
H508        H  0.28992720  0.76770441  0.96171431     0.12100
C509        C  0.93980149  0.44723331  0.85906923     0.18400
C510        C  0.91504143  0.46248704  0.84559952    -0.10700
C511        C  0.91314307  0.46324441  0.81987789    -0.11500
C512        C  0.93602841  0.44881014  0.80737863     0.20000
C513        C  0.95987339  0.43249145  0.82083735    -0.13600
C514        C  0.96176344  0.43172750  0.84653114    -0.11900
C515        C  0.93757048  0.45361154  0.78100455     0.01000
C516        C  0.94192579  0.46035670  0.75928135    -0.31900
C517        C  0.94559684  0.45082727  0.88561504     0.02300
C518        C  0.95469103  0.45759013  0.90751070    -0.33500
H519        H  0.89814402  0.47490653  0.85498229     0.13400
H520        H  0.89476405  0.47618655  0.80978591     0.13200
H521        H  0.97793291  0.42145413  0.81150298     0.13100
H522        H  0.98129433  0.42016021  0.85663706     0.12100
C523        C  0.73717053  0.71355551  0.99983517     0.18400
C524        C  0.74135696  0.75632916  0.99782601    -0.10700
C525        C  0.78249125  0.79612584  0.99820480    -0.11500
C526        C  0.82016629  0.79383432  0.00064836     0.20000
C527        C  0.81599024  0.75106498  0.00267028    -0.13600
C528        C  0.77485621  0.71126934  0.00229089    -0.11900
C529        C  0.86295224  0.83490526  0.00048080     0.01000
C530        C  0.89965452  0.86714236  0.99939159    -0.31900
C531        C  0.69437914  0.67245234  0.99998529     0.02300
C532        C  0.65790656  0.63980925  0.00117553    -0.33500
H533        H  0.71276528  0.75895776  0.99601034     0.13400
H534        H  0.78486808  0.82867386  0.99653375     0.13200
H535        H  0.84458645  0.74843888  0.00448915     0.13100
H536        H  0.77248540  0.67872377  0.00396463     0.12100
C537        C  0.32694652  0.28586667  0.00385043     0.18400
C538        C  0.28801691  0.28441759  0.99710083    -0.10700
C539        C  0.24824818  0.24328854  0.99721151    -0.11500
C540        C  0.24677281  0.20294575  0.00401459     0.20000
C541        C  0.28570403  0.20428848  0.01075354    -0.13600
C542        C  0.32555764  0.24550145  0.01063231    -0.11900
C543        C  0.20514969  0.16089933  0.00466888     0.01000
C544        C  0.16859130  0.12870429  0.00577772    -0.31900
C545        C  0.36818826  0.32836799  0.00313261     0.02300
C546        C  0.40335265  0.36251816  0.00142610    -0.33500
H547        H  0.28837897  0.31509336  0.99170109     0.13400
H548        H  0.21855830  0.24299051  0.99204450     0.13200
H549        H  0.28527365  0.17357617  0.01615656     0.13100
H550        H  0.35528176  0.24586475  0.01579237     0.12100
C551        C  0.01619994  0.68576661  0.01570229     0.18400
C552        C  0.98154106  0.69263044  0.01607944    -0.10700
C553        C  0.98960892  0.73647373  0.01870028    -0.11500
C554        C  0.03229742  0.77341746  0.02094885     0.20000
C555        C  0.06697387  0.76643972  0.02108786    -0.13600
C556        C  0.05891058  0.72259735  0.01851114    -0.11900
C557        C  0.03994347  0.81846510  0.02055720     0.01000
C558        C  0.04179645  0.85391775  0.01697815    -0.31900
C559        C  0.00850345  0.64162853  0.01084508     0.02300
C560        C  0.00795047  0.60788308  0.00564179    -0.33500
H561        H  0.94844603  0.66436111  0.01373357     0.13400
H562        H  0.96260618  0.74172123  0.01825753     0.13200
H563        H  0.10005113  0.79487520  0.02249095     0.13100
H564        H  0.08590093  0.71752302  0.01805283     0.12100
C565        C  0.01723881  0.21393348  0.98245612     0.18400
C566        C  0.04896775  0.25498468  0.97295355    -0.10700
C567        C  0.04760047  0.29426424  0.97575449    -0.11500
C568        C  0.01461608  0.29230422  0.98814153     0.20000
C569        C  0.98235264  0.25101711  0.99701500    -0.13600
C570        C  0.98368982  0.21190675  0.99420495    -0.11900
C571        C  0.01385167  0.33237707  0.99261223     0.01000
C572        C  0.00798239  0.36209492  0.99775492    -0.31900
C573        C  0.02127419  0.17488965  0.98273375     0.02300
C574        C  0.02503603  0.14265337  0.98669082    -0.33500
H575        H  0.07530767  0.25685722  0.96408027     0.13400
H576        H  0.07264363  0.32614427  0.96882783     0.13200
H577        H  0.95671682  0.24927967  0.00659482     0.13100
H578        H  0.95932242  0.18038612  0.00183553     0.12100
C579        C  0.01149300  0.02122003  0.80716413     0.18400
C580        C  0.01414597  0.05624105  0.82088783    -0.10700
C581        C  0.01858118  0.05586345  0.84665350    -0.11500
C582        C  0.02037802  0.02042984  0.85898670     0.20000
C583        C  0.01810460  0.98567353  0.84524656    -0.13600
C584        C  0.01367336  0.98604856  0.81952339    -0.11900
C585        C  0.02349110  0.01880471  0.88561811     0.01000
C586        C  0.02496959  0.01426484  0.90771498    -0.31900
C587        C  0.00484136  0.02032232  0.78054603     0.02300
C588        C  0.99681263  0.01799620  0.75843520    -0.33500
H589        H  0.01231648  0.08358110  0.81168440     0.13400
H590        H  0.02017992  0.08294229  0.85693143     0.13200
H591        H  0.01933246  0.95798434  0.85443152     0.13100
H592        H  0.01147953  0.95861640  0.80927882     0.12100
C593        C  0.48848255  0.50693082  0.52494647     0.18400
C594        C  0.49930524  0.47842327  0.51413478    -0.10700
C595        C  0.50210448  0.47927315  0.48874839    -0.11500
C596        C  0.49403798  0.50857458  0.47395529     0.20000
C597        C  0.48294935  0.53686951  0.48474390    -0.13600
C598        C  0.48014599  0.53601607  0.51013137    -0.11900
C599        C  0.49854563  0.51049296  0.44790626     0.01000
C600        C  0.50479620  0.51180438  0.42649451    -0.31900
C601        C  0.48518831  0.50590678  0.55110992     0.02300
C602        C  0.48042848  0.50483083  0.57275174    -0.33500
H603        H  0.50565770  0.45563804  0.52531597     0.13400
H604        H  0.51082977  0.45729999  0.48067886     0.13200
H605        H  0.47674869  0.55976669  0.47357223     0.13100
H606        H  0.47156857  0.55809943  0.51821226     0.12100
C607        C  0.55074812  0.50361921  0.19574213     0.18400
C608        C  0.58809719  0.52954107  0.18329296    -0.10700
C609        C  0.58619708  0.52550878  0.15775743    -0.11500
C610        C  0.54694196  0.49549503  0.14438844     0.20000
C611        C  0.50963083  0.46928032  0.15685811    -0.13600
C612        C  0.51153415  0.47330877  0.18240971    -0.11900
C613        C  0.54476209  0.49319851  0.11787021     0.01000
C614        C  0.54378513  0.49449442  0.09568339    -0.31900
C615        C  0.55221884  0.50933758  0.22196717     0.02300
C616        C  0.55153668  0.51463758  0.24362803    -0.33500
H617        H  0.61857370  0.55327053  0.19327868     0.13400
H618        H  0.61525253  0.54621249  0.14840345     0.13200
H619        H  0.47899180  0.44614736  0.14681350     0.13100
H620        H  0.48232202  0.45320086  0.19172373     0.12100
C621        C  0.49979365  0.01614836  0.47270932     0.18400
C622        C  0.49875855  0.05143918  0.48384886    -0.10700
C623        C  0.49567604  0.05134268  0.50922131    -0.11500
C624        C  0.49372744  0.01602194  0.52371255     0.20000
C625        C  0.49480432  0.98079295  0.51255872    -0.13600
C626        C  0.49787300  0.98088330  0.48721716    -0.11900
C627        C  0.48919959  0.01499984  0.54980577     0.01000
C628        C  0.48273628  0.01199354  0.57131332    -0.31900
C629        C  0.50362835  0.01633955  0.44656813     0.02300
C630        C  0.50854865  0.01580590  0.42501336    -0.33500
H631        H  0.50032821  0.07900125  0.47293816     0.13400
H632        H  0.49465636  0.07870309  0.51750878     0.13200
H633        H  0.49310814  0.95314201  0.52343968     0.13100
H634        H  0.49875213  0.95342820  0.47893818     0.12100
C635        C  0.53196797  0.80967933  0.33696517     0.18400
C636        C  0.50925690  0.77385416  0.35300105    -0.10700
C637        C  0.51001027  0.73372057  0.35162825    -0.11500
C638        C  0.53359709  0.72894221  0.33426381     0.20000
C639        C  0.55649580  0.76488623  0.31835795    -0.13600
C640        C  0.55573691  0.80496960  0.31972653    -0.11900
C641        C  0.53300962  0.68673364  0.33217357     0.01000
C642        C  0.52974028  0.65020096  0.32980992    -0.31900
C643        C  0.53197342  0.85165129  0.33847824     0.02300
C644        C  0.53530364  0.88837238  0.33991530    -0.33500
H645        H  0.49091921  0.77689005  0.36653573     0.13400
H646        H  0.49197945  0.70631582  0.36401722     0.13200
H647        H  0.57475732  0.76184769  0.30477804     0.13100
H648        H  0.57368623  0.83231172  0.30728902     0.12100
C649        C  0.53222313  0.30920638  0.33780934     0.18400
C650        C  0.54722326  0.30147413  0.31690146    -0.10700
C651        C  0.54863475  0.26195152  0.31471128    -0.11500
C652        C  0.53520133  0.22977767  0.33344966     0.20000
C653        C  0.52026667  0.23753837  0.35438483    -0.13600
C654        C  0.51885748  0.27707691  0.35657656    -0.11900
C655        C  0.53494371  0.18802584  0.33077077     0.01000
C656        C  0.53123070  0.15143813  0.32815160    -0.31900
C657        C  0.53213648  0.35080080  0.34030987     0.02300
C658        C  0.53552292  0.38732838  0.34248377    -0.33500
H659        H  0.55791552  0.32605105  0.30230144     0.13400
H660        H  0.56001205  0.25640308  0.29835780     0.13200
H661        H  0.50952070  0.21292680  0.36896695     0.13100
H662        H  0.50742883  0.28260978  0.37291358     0.12100
C663        C  0.55897961  0.01799422  0.19309204     0.18400
C664        C  0.55551462  0.05034669  0.17844151    -0.10700
C665        C  0.55314998  0.04759929  0.15282424    -0.11500
C666        C  0.55426454  0.01248829  0.14157878     0.20000
C667        C  0.55848952  0.98055378  0.15622491    -0.13600
C668        C  0.56084955  0.98329937  0.18187417    -0.11900
C669        C  0.54805473  0.00750670  0.11512812     0.01000
C670        C  0.53891950  0.00109486  0.09323977    -0.31900
C671        C  0.55805047  0.01913013  0.21943247     0.02300
C672        C  0.55415294  0.02039821  0.24106549    -0.33500
H673        H  0.55375053  0.07718485  0.18680753     0.13400
H674        H  0.54954039  0.07230752  0.14178390     0.13200
H675        H  0.55903886  0.95300380  0.14781718     0.13100
H676        H  0.56324227  0.95787765  0.19291262     0.12100
C677        C  0.97978666  0.50125741  0.52508603     0.18400
C678        C  0.94475285  0.46912493  0.50960628    -0.10700
C679        C  0.94834137  0.46844571  0.48434209    -0.11500
C680        C  0.98701039  0.49992067  0.47423778     0.20000
C681        C  0.02203128  0.53209030  0.48970833    -0.13600
C682        C  0.01844274  0.53276772  0.51497918    -0.11900
C683        C  0.99121457  0.49856107  0.44820926     0.01000
C684        C  0.99646413  0.49718502  0.42676553    -0.31900
C685        C  0.97596014  0.50154489  0.55124503     0.02300
C686        C  0.97081913  0.49976886  0.57293677    -0.33500
H687        H  0.91466935  0.44448062  0.51707941     0.13400
H688        H  0.92102766  0.44323998  0.47272035     0.13200
H689        H  0.05220660  0.55653389  0.48225533     0.13100
H690        H  0.04584887  0.55777247  0.52662942     0.12100
C691        C  0.80537758  0.49412586  0.33637675     0.18400
C692        C  0.78619586  0.49901577  0.31401709    -0.10700
C693        C  0.75826751  0.51547558  0.31368672    -0.11500
C694        C  0.74978317  0.52738777  0.33570743     0.20000
C695        C  0.76919033  0.52277360  0.35806169    -0.13600
C696        C  0.79713229  0.50631494  0.35839113    -0.11900
C697        C  0.71781684  0.53980907  0.33566392     0.01000
C698        C  0.68669342  0.54299938  0.33708783    -0.31900
C699        C  0.83647834  0.48053677  0.33640430     0.02300
C700        C  0.86690917  0.47628824  0.33469359    -0.33500
H701        H  0.79297861  0.49029434  0.29687727     0.13400
H702        H  0.74291841  0.51837869  0.29635691     0.13200
H703        H  0.76230298  0.53136087  0.37520564     0.13100
H704        H  0.81239180  0.50327638  0.37572242     0.12100
C705        C  0.30880812  0.49794849  0.33300821     0.18400
C706        C  0.31547820  0.54119712  0.32830825    -0.10700
C707        C  0.28082308  0.54816416  0.32756512    -0.11500
C708        C  0.23944555  0.51182519  0.33145945     0.20000
C709        C  0.23266246  0.46844332  0.33588293    -0.13600
C710        C  0.26734626  0.46147515  0.33663568    -0.11900
C711        C  0.20403062  0.51895723  0.33191121     0.01000
C712        C  0.17208073  0.52034387  0.33395840    -0.31900
C713        C  0.34485253  0.49160464  0.33387821     0.02300
C714        C  0.37806354  0.49214816  0.33312223    -0.33500
H715        H  0.34751080  0.56954527  0.32538482     0.13400
H716        H  0.28633309  0.58180925  0.32420777     0.13200
H717        H  0.20068301  0.44017580  0.33898154     0.13100
H718        H  0.26192652  0.42791014  0.34017868     0.12100
C719        C  0.05746374  0.51229451  0.14370490     0.18400
C720        C  0.06568598  0.48257514  0.15799668    -0.10700
C721        C  0.06399858  0.48154227  0.18352072    -0.11500
C722        C  0.05400704  0.51018197  0.19497568     0.20000
C723        C  0.04614300  0.54014034  0.18069456    -0.13600
C724        C  0.04782318  0.54116724  0.15519563    -0.11900
C725        C  0.05039022  0.50805819  0.22118144     0.01000
C726        C  0.04509738  0.50709884  0.24276307    -0.31900
C727        C  0.05561191  0.51068091  0.11720873     0.02300
C728        C  0.04914481  0.50514703  0.09517600    -0.33500
H729        H  0.07266889  0.45966527  0.14937079     0.13400
H730        H  0.06992134  0.45803360  0.19425840     0.13200
H731        H  0.03814811  0.56230683  0.18923995     0.13100
H732        H  0.04088209  0.56392488  0.14440864     0.12100
C733        C  0.95147917  0.99575083  0.52093644     0.18400
C734        C  0.93863684  0.95442921  0.50950833    -0.10700
C735        C  0.94543607  0.95317635  0.48480556    -0.11500
C736        C  0.96521498  0.99325182  0.47124882     0.20000
C737        C  0.97761576  0.03450830  0.48259608    -0.13600
C738        C  0.97082433  0.03576156  0.50729873    -0.11900
C739        C  0.97428751  0.99233304  0.44608011     0.01000
C740        C  0.98370070  0.99211935  0.42542148    -0.31900
C741        C  0.94756543  0.99747396  0.54696205     0.02300
C742        C  0.94852350  0.99965629  0.56908737    -0.33500
H743        H  0.92404129  0.92326617  0.51980701     0.13400
H744        H  0.93584697  0.92104312  0.47639345     0.13200
H745        H  0.99312581  0.06581082  0.47245473     0.13100
H746        H  0.98133712  0.06803567  0.51586765     0.12100
C747        C  0.01834852  0.70893472  0.33366844     0.18400
C748        C  0.98869389  0.71037528  0.34779223    -0.10700
C749        C  0.98739368  0.75014358  0.34919425    -0.11500
C750        C  0.01563842  0.78894917  0.33642376     0.20000
C751        C  0.04522615  0.78748522  0.32225206    -0.13600
C752        C  0.04652747  0.74771451  0.32085008    -0.11900
C753        C  0.01536382  0.83062082  0.33845537     0.01000
C754        C  0.01832022  0.86697388  0.34072668    -0.31900
C755        C  0.01891371  0.66737360  0.33185014     0.02300
C756        C  0.01627829  0.63112418  0.32978246    -0.33500
H757        H  0.96652520  0.68072105  0.35772053     0.13400
H758        H  0.96446704  0.75065616  0.36030968     0.13200
H759        H  0.06742857  0.81716072  0.31234832     0.13100
H760        H  0.06949069  0.74722103  0.30975859     0.12100
C761        C  0.01734151  0.20798960  0.33167464     0.18400
C762        C  0.05524977  0.25017590  0.32921763    -0.10700
C763        C  0.05468062  0.29037098  0.33054782    -0.11500
C764        C  0.01620398  0.28888664  0.33430590     0.20000
C765        C  0.97826698  0.24669483  0.33664864    -0.13600
C766        C  0.97883580  0.20651101  0.33531771    -0.11900
C767        C  0.01617276  0.33068699  0.33631729     0.01000
C768        C  0.01961821  0.36724980  0.33868264    -0.31900
C769        C  0.01748601  0.16616337  0.33019574     0.02300
C770        C  0.01416349  0.12953955  0.32842975    -0.33500
H771        H  0.08524578  0.25202695  0.32632081     0.13400
H772        H  0.08432658  0.32264622  0.32875462     0.13200
H773        H  0.94829475  0.24484049  0.33961153     0.13100
H774        H  0.94921354  0.17424613  0.33717748     0.12100
C775        C  0.74776038  0.02821333  0.33031364     0.18400
C776        C  0.77227099  0.03048393  0.35211125    -0.10700
C777        C  0.79941685  0.01300760  0.35282786    -0.11500
C778        C  0.80182180  0.99292180  0.33180030     0.20000
C779        C  0.77756780  0.99094247  0.30994032    -0.13600
C780        C  0.75038763  0.00840887  0.30922605    -0.11900
C781        C  0.83232962  0.97847291  0.33202282     0.01000
C782        C  0.86276815  0.97395751  0.33096325    -0.31900
C783        C  0.71633528  0.04137134  0.33044075     0.02300
C784        C  0.68548790  0.04483006  0.33237801    -0.33500
H785        H  0.76991549  0.04515072  0.36860051     0.13400
H786        H  0.81863799  0.01533051  0.36969262     0.13200
H787        H  0.77982075  0.97611460  0.29348359     0.13100
H788        H  0.73102543  0.00591896  0.29239456     0.12100
C789        C  0.30859663  0.00174081  0.33413192     0.18400
C790        C  0.27459145  0.97370271  0.34847258    -0.10700
C791        C  0.23962587  0.97999526  0.34882287    -0.11500
C792        C  0.23863325  0.01436011  0.33487579     0.20000
C793        C  0.27247050  0.04218105  0.32037377    -0.13600
C794        C  0.30744442  0.03587923  0.32001900    -0.11900
C795        C  0.20262587  0.02055511  0.33557179     0.01000
C796        C  0.17020914  0.02118353  0.33747838    -0.31900
C797        C  0.34523554  0.99641897  0.33411393     0.02300
C798        C  0.37813979  0.99648881  0.33273943    -0.33500
H799        H  0.27523290  0.94726150  0.35944385     0.13400
H800        H  0.21346393  0.95822672  0.36003624     0.13200
H801        H  0.27189892  0.06873593  0.30947902     0.13100
H802        H  0.33368765  0.05775174  0.30887720     0.12100
C803        C  0.04641065  0.99145078  0.19623134     0.18400
C804        C  0.00677230  0.96642170  0.18210089    -0.10700
C805        C  0.00576048  0.96241449  0.15666048    -0.11500
C806        C  0.04439690  0.98336002  0.14510135     0.20000
C807        C  0.08410956  0.00791800  0.15926643    -0.13600
C808        C  0.08512289  0.01193951  0.18474212    -0.11900
C809        C  0.04314305  0.98214051  0.11864490     0.01000
C810        C  0.04243603  0.98479704  0.09652498    -0.31900
C811        C  0.04685528  0.99708342  0.22230629     0.02300
C812        C  0.04378138  0.00106598  0.24374919    -0.33500
H813        H  0.97659269  0.95053479  0.19071123     0.13400
H814        H  0.97483063  0.94364734  0.14596499     0.13200
H815        H  0.11422292  0.02460029  0.15057219     0.13100
H816        H  0.11598539  0.03151462  0.19539804     0.12100
loop_ 
_geom_bond_atom_site_label_1 
_geom_bond_atom_site_label_2 
_geom_bond_distance 
_geom_bond_site_symmetry_2 
_ccdc_geom_bond_type 
O1           Ni7   1.941       .  S
O1           C22   1.272   1_455  A
O2          Ni25   1.914       .  S
O2           C11   1.266   1_565  A
O3           Ni7   1.919   1_545  S
O3          Ni25   1.916   1_545  S
O3          Ni19   1.911   1_445  S
O3           H26   0.966       .  S
C4           O21   1.272       .  A
C4           O13   1.273       .  A
C4          C782   1.424       .  S
O5          Ni24   1.930   1_455  S
O5           C11   1.269       .  A
O6          Ni24   1.913       .  S
O6            C8   1.269   1_655  A
Ni7          O10   1.926   1_565  S
Ni7          O12   1.914       .  S
C8           O18   1.274       .  A
C8          C770   1.448       .  S
O9          Ni25   1.905   1_545  S
O9           C15   1.270       .  A
O10          C15   1.274       .  A
C11         C812   1.441       .  S
O12          C14   1.269       .  A
O13         Ni24   1.916   1_565  S
C14          O20   1.274       .  A
C14         C754   1.448       .  S
C15         C796   1.428       .  S
H16          O17   0.966       .  S
O17         Ni25   1.907   1_655  S
O17         Ni19   1.911       .  S
O17         Ni24   1.916   1_565  S
O18         Ni19   1.941   1_445  S
Ni19         O23   1.914   1_565  S
Ni19         O21   1.910       .  S
O20         Ni25   1.940       .  S
C22          O23   1.268   1_565  A
C22         C740   1.447       .  S
O27         Ni33   1.937       .  S
O27          C48   1.271       .  A
O28         Ni51   1.919       .  S
O28          C37   1.268       .  A
O29         Ni33   1.917       .  S
O29         Ni51   1.916       .  S
O29         Ni45   1.909   1_455  S
O29          H52   0.966       .  S
C30          O47   1.272       .  A
C30          O39   1.273       .  A
C30         C700   1.424       .  S
O31         Ni50   1.932   1_455  S
O31          C37   1.270       .  A
O32         Ni50   1.913       .  S
O32          C34   1.269   1_655  A
Ni33         O36   1.922       .  S
Ni33         O38   1.913       .  S
C34          O44   1.275       .  A
C34         C756   1.449       .  S
O35         Ni51   1.906       .  S
O35          C41   1.271       .  A
O36          C41   1.274       .  A
C37         C726   1.444       .  S
O38          C40   1.269       .  A
O39         Ni50   1.916       .  S
C40          O46   1.274       .  A
C40         C768   1.448       .  S
C41         C712   1.426       .  S
H42          O43   0.966       .  S
O43         Ni51   1.907   1_655  S
O43         Ni45   1.912       .  S
O43         Ni50   1.914       .  S
O44         Ni45   1.942   1_455  S
Ni45         O49   1.918       .  S
Ni45         O47   1.909       .  S
O46         Ni51   1.942       .  S
C48          O49   1.269   1_455  A
C48         C684   1.448   1_455  S
O53         Ni59   1.932   1_565  S
O53          C74   1.270   1_565  A
O54         Ni77   1.917       .  S
O54          C63   1.268       .  A
O55         Ni59   1.913       .  S
O55         Ni77   1.913       .  S
O55         Ni71   1.912       .  S
O55          H78   0.966       .  S
C56          O73   1.274       .  A
C56          O65   1.274       .  A
C56         C798   1.428   1_545  S
O57         Ni76   1.934       .  S
O57          C63   1.270       .  A
O58         Ni76   1.913       .  S
O58          C60   1.269       .  A
Ni59         O62   1.918       .  S
Ni59         O64   1.914   1_545  S
C60          O70   1.273       .  A
C60         C656   1.445       .  S
O61         Ni77   1.910       .  S
O61          C67   1.272       .  A
O62          C67   1.273       .  A
C63         C672   1.444       .  S
O64          C66   1.269       .  A
O65         Ni76   1.921       .  S
C66          O72   1.276       .  A
C66         C644   1.450       .  S
C67         C784   1.426       .  S
H68          O69   0.966   1_565  S
O69         Ni77   1.908       .  S
O69         Ni71   1.913       .  S
O69         Ni76   1.915       .  S
O70         Ni71   1.938       .  S
Ni71         O75   1.920       .  S
Ni71         O73   1.912       .  S
O72         Ni77   1.944   1_565  S
C74          O75   1.269       .  A
C74         C630   1.446       .  S
O79         Ni85   1.930       .  S
O79         C100   1.270       .  A
O80        Ni103   1.918       .  S
O80          C89   1.269       .  A
O81         Ni85   1.912       .  S
O81        Ni103   1.912       .  S
O81         Ni97   1.911       .  S
O81         H104   0.966       .  S
C82          O99   1.274       .  A
C82          O91   1.274       .  A
C82         C714   1.425       .  S
O83        Ni102   1.931       .  S
O83          C89   1.271       .  A
O84        Ni102   1.918       .  S
O84          C86   1.270       .  A
Ni85         O88   1.917       .  S
Ni85         O90   1.913       .  S
C86          O96   1.274       .  A
C86         C642   1.451       .  S
O87        Ni103   1.912       .  S
O87          C93   1.273       .  A
O88          C93   1.274       .  A
C89         C616   1.444       .  S
O90          C92   1.268       .  A
O91        Ni102   1.918       .  S
C92          O98   1.273       .  A
C92         C658   1.445       .  S
C93         C698   1.425       .  S
H94          O95   0.966       .  S
O95        Ni103   1.907       .  S
O95         Ni97   1.907       .  S
O95        Ni102   1.909       .  S
O96         Ni97   1.941       .  S
Ni97        O101   1.916       .  S
Ni97         O99   1.912       .  S
O98        Ni103   1.937       .  S
C100        O101   1.268       .  A
C100        C600   1.441       .  S
O105       Ni111   1.931       .  S
O105        C126   1.270   1_545  A
O106       Ni129   1.919       .  S
O106        C115   1.269       .  A
O107       Ni111   1.915       .  S
O107       Ni129   1.916   1_554  S
O107       Ni123   1.910   1_545  S
O107        H130   0.966   1_455  S
C108        O125   1.273       .  A
C108        O117   1.275   1_554  A
C108        C558   1.426       .  S
O109       Ni128   1.938       .  S
O109        C115   1.272   1_565  A
O110       Ni128   1.914   1_655  S
O110        C112   1.269       .  A
Ni111       O114   1.920       .  S
Ni111       O116   1.910       .  S
C112        O122   1.277   1_556  A
C112        C530   1.455       .  S
O113       Ni129   1.907       .  S
O113        C119   1.271       .  A
O114        C119   1.274   1_554  A
C115        C586   1.449       .  S
O116        C118   1.268       .  A
O117       Ni128   1.920       .  S
C118        O124   1.276   1_554  A
C118        C544   1.449       .  S
C119        C574   1.425       .  S
H120        O121   0.966       .  S
O121       Ni129   1.906   1_565  S
O121       Ni123   1.914   1_556  S
O121       Ni128   1.912       .  S
O122       Ni123   1.950   1_655  S
Ni123       O127   1.918       .  S
Ni123       O125   1.910       .  S
O124       Ni129   1.946       .  S
C126        O127   1.269       .  A
C126        C810   1.442       .  S
O131       Ni137   1.926       .  S
O131        C152   1.268   1_455  A
O132       Ni155   1.920       .  S
O132        C141   1.269       .  A
O133       Ni137   1.917       .  S
O133       Ni155   1.919   1_556  S
O133       Ni149   1.912   1_455  S
O133        H156   0.966       .  S
C134        O151   1.264       .  A
C134        O143   1.267   1_556  A
C134        C490   1.423       .  S
O135       Ni154   1.918   1_455  S
O135        C141   1.266       .  A
O136       Ni154   1.904       .  S
O136        C138   1.270       .  A
Ni137       O140   1.921       .  S
Ni137       O142   1.904       .  S
C138        O148   1.274   1_554  A
C138        C572   1.425   1_654  S
O139       Ni155   1.904       .  S
O139        C145   1.266       .  A
O140        C145   1.269   1_556  A
C141        C728   1.442       .  S
O142        C144   1.269       .  A
O143       Ni154   1.918       .  S
C144        O150   1.273   1_556  A
C144        C560   1.425   1_556  S
C145        C502   1.423       .  S
H146        O147   0.966       .  S
O147       Ni155   1.918   1_655  S
O147       Ni149   1.919   1_554  S
O147       Ni154   1.919       .  S
O148       Ni149   1.936       .  S
Ni149       O153   1.917       .  S
Ni149       O151   1.905       .  S
O150       Ni155   1.933       .  S
C152        O153   1.268       .  A
C152        C518   1.445       .  S
O157       Ni163   1.929       .  S
O157        C178   1.268   1_545  A
O158       Ni181   1.916       .  S
O158        C167   1.267   1_545  A
O159       Ni163   1.921   1_565  S
O159       Ni181   1.919   1_566  S
O159       Ni175   1.906       .  S
O159        H182   0.965       .  S
C160        O177   1.263       .  A
C160        O169   1.267   1_556  A
C160        C504   1.422       .  S
O161       Ni180   1.923       .  S
O161        C167   1.267       .  A
O162       Ni180   1.907       .  S
O162        C164   1.271       .  A
Ni163       O166   1.918       .  S
Ni163       O168   1.906       .  S
C164        O174   1.276   1_554  A
C164        C448   1.436   1_554  S
O165       Ni181   1.902       .  S
O165        C171   1.266       .  A
O166        C171   1.270   1_556  A
C167        C670   1.443   1_565  S
O168        C170   1.268       .  A
O169       Ni180   1.918       .  S
C170        O176   1.273   1_556  A
C170        C462   1.435   1_556  S
C171        C488   1.423       .  S
H172        O173   0.966   1_545  S
O173       Ni181   1.919   1_565  S
O173       Ni175   1.922   1_554  S
O173       Ni180   1.923       .  S
O174       Ni175   1.946       .  S
Ni175       O179   1.914       .  S
Ni175       O177   1.902       .  S
O176       Ni181   1.937       .  S
C178        O179   1.267       .  A
C178        C474   1.443       .  S
O183       Ni189   1.930       .  S
O183        C204   1.271       .  A
O184       Ni207   1.920       .  S
O184        C193   1.271       .  A
O185       Ni189   1.910       .  S
O185       Ni207   1.910   1_554  S
O185       Ni201   1.914       .  S
O185        H208   0.966       .  S
C186        O203   1.276       .  A
C186        O195   1.275   1_554  A
C186        C460   1.435       .  S
O187       Ni206   1.935       .  S
O187        C193   1.271       .  A
O188       Ni206   1.911       .  S
O188        C190   1.268       .  A
Ni189       O192   1.922       .  S
Ni189       O194   1.914       .  S
C190        O200   1.276   1_556  A
C190        C546   1.450   1_556  S
O191       Ni207   1.922       .  S
O191        C197   1.276       .  A
O192        C197   1.275   1_554  A
C193        C432   1.447       .  S
O194        C196   1.269       .  A
O195       Ni206   1.920       .  S
C196        O202   1.278   1_554  A
C196        C532   1.456       .  S
C197        C446   1.435       .  S
H198        O199   0.966       .  S
O199       Ni207   1.916       .  S
O199       Ni201   1.915   1_556  S
O199       Ni206   1.910       .  S
O200       Ni201   1.946       .  S
Ni201       O205   1.922       .  S
Ni201       O203   1.924       .  S
O202       Ni207   1.954       .  S
C204        O205   1.271       .  A
C204        C614   1.445       .  S
O209       Ni215   1.925   1_655  S
O209        C230   1.268       .  A
O210       Ni233   1.919   1_455  S
O210        C219   1.271   1_455  A
O211       Ni215   1.909   1_665  S
O211       Ni233   1.907   1_565  S
O211       Ni227   1.920   1_565  S
O211        H234   0.966       .  S
C212        O229   1.277       .  A
C212        O221   1.275       .  A
C212        C406   1.443       .  S
O213       Ni232   1.941       .  S
O213        C219   1.273   1_565  A
O214       Ni232   1.910       .  S
O214        C216   1.269       .  A
Ni215       O218   1.918   1_545  S
Ni215       O220   1.912       .  S
C216        O226   1.277       .  A
C216        C376   1.448       .  S
O217       Ni233   1.933   1_465  S
O217        C223   1.278       .  A
O218        C223   1.275       .  A
C219        C588   1.450       .  S
O220        C222   1.268       .  A
O221       Ni232   1.929   1_545  S
C222        O228   1.275       .  A
C222        C392   1.449       .  S
C223        C418   1.439       .  S
H224        O225   0.966       .  S
O225       Ni233   1.923       .  S
O225       Ni227   1.919       .  S
O225       Ni232   1.913   1_545  S
O226       Ni227   1.948   1_565  S
Ni227       O231   1.930   1_545  S
Ni227       O229   1.925       .  S
O228       Ni233   1.942   1_455  S
C230        O231   1.272   1_545  A
C230        C742   1.446   1_545  S
O235       Ni241   1.939   1_655  S
O235        C256   1.273       .  A
O236       Ni259   1.919       .  S
O236        C245   1.270       .  A
O237       Ni241   1.911   1_655  S
O237       Ni259   1.909       .  S
O237       Ni253   1.910       .  S
O237        H260   0.966       .  S
C238        O255   1.271       .  A
C238        O247   1.275       .  A
C238        C320   1.430       .  S
O239       Ni258   1.939       .  S
O239        C245   1.273       .  A
O240       Ni258   1.919       .  S
O240        C242   1.270       .  A
Ni241       O244   1.923       .  S
Ni241       O246   1.920       .  S
C242        O252   1.279       .  A
C242        C348   1.463       .  S
O243       Ni259   1.916   1_455  S
O243        C249   1.275       .  A
O244        C249   1.276       .  A
C245        C686   1.448       .  S
O246        C248   1.270       .  A
O247       Ni258   1.929       .  S
C248        O254   1.279       .  A
C248        C362   1.463       .  S
C249        C334   1.430       .  S
H250        O251   0.966       .  S
O251       Ni259   1.914       .  S
O251       Ni253   1.912       .  S
O251       Ni258   1.916       .  S
O252       Ni253   1.959       .  S
Ni253       O257   1.916       .  S
Ni253       O255   1.907       .  S
O254       Ni259   1.955   1_455  S
C256        O257   1.269       .  A
C256        C516   1.446       .  S
O261       Ni267   1.930       .  S
O261        C282   1.270   1_565  A
O262       Ni285   1.915       .  S
O262        C271   1.267       .  A
O263       Ni267   1.925   1_545  S
O263       Ni285   1.915   1_545  S
O263       Ni279   1.919   1_545  S
O263        H286   0.966       .  S
C264        O281   1.268       .  A
C264        O273   1.269       .  A
C264        C404   1.443       .  S
O265       Ni284   1.926       .  S
O265        C271   1.268       .  A
O266       Ni284   1.898   1_545  S
O266        C268   1.268       .  A
Ni267       O270   1.934       .  S
Ni267       O272   1.901       .  S
C268        O278   1.276       .  A
C268        C322   1.428       .  S
O269       Ni285   1.913   1_545  S
O269        C275   1.268       .  A
O270        C275   1.271   1_565  A
C271        C476   1.443       .  S
O272        C274   1.268       .  A
O273       Ni284   1.932       .  S
C274        O280   1.275       .  A
C274        C336   1.430       .  S
C275        C420   1.440       .  S
H276        O277   0.966       .  S
O277       Ni285   1.928       .  S
O277       Ni279   1.922       .  S
O277       Ni284   1.927       .  S
O278       Ni279   1.941   1_545  S
Ni279       O283   1.916   1_565  S
Ni279       O281   1.915       .  S
O280       Ni285   1.939       .  S
C282        O283   1.269       .  A
C282        C628   1.446       .  S
O287       Ni293   1.937       .  S
O287        C308   1.272       .  A
O288       Ni311   1.927       .  S
O288        C297   1.273       .  A
O289       Ni293   1.916       .  S
O289       Ni311   1.916       .  S
O289       Ni305   1.937       .  S
O289        H312   0.966       .  S
C290        O307   1.284       .  A
C290        O299   1.277       .  A
C290        C350   1.463       .  S
O291       Ni310   1.928       .  S
O291        C297   1.271       .  A
O292       Ni310   1.914       .  S
O292        C294   1.268       .  A
Ni293       O296   1.936       .  S
Ni293       O298   1.909       .  S
C294        O304   1.274       .  A
C294        C378   1.449       .  S
O295       Ni311   1.950       .  S
O295        C301   1.283       .  A
O296        C301   1.276       .  A
C297        C434   1.447       .  S
O298        C300   1.269       .  A
O299       Ni310   1.932       .  S
C300        O306   1.277       .  A
C300        C390   1.448       .  S
C301        C364   1.464       .  S
H302        O303   0.966       .  S
O303       Ni311   1.935       .  S
O303       Ni305   1.904       .  S
O303       Ni310   1.913       .  S
O304       Ni305   1.940       .  S
Ni305       O309   1.912       .  S
Ni305       O307   1.954       .  S
O306       Ni311   1.947       .  S
C308        O309   1.269       .  A
C308        C602   1.442       .  S
C313        C321   1.435       .  S
C313        C314   1.402       .  A
C313        C318   1.399       .  A
C314        C315   1.397       .  A
C314        H323   1.084       .  S
C315        C316   1.400       .  A
C315        H324   1.083       .  S
C316        C319   1.435       .  S
C316        C317   1.402       .  A
C317        C318   1.397       .  A
C317        H325   1.084       .  S
C318        H326   1.083       .  S
C319        C320   1.203       .  T
C321        C322   1.202       .  T
C327        C335   1.436       .  S
C327        C328   1.400       .  A
C327        C332   1.401       .  A
C328        C329   1.399       .  A
C328        H337   1.083       .  S
C329        C330   1.403       .  A
C329        H338   1.084       .  S
C330        C333   1.436       .  S
C330        C331   1.399       .  A
C331        C332   1.396       .  A
C331        H339   1.083       .  S
C332        H340   1.084       .  S
C333        C334   1.203       .  T
C335        C336   1.203       .  T
C341        C349   1.468       .  S
C341        C342   1.406       .  A
C341        C346   1.407       .  A
C342        C343   1.409       .  A
C342        H351   1.083       .  S
C343        C344   1.407       .  A
C343        H352   1.083       .  S
C344        C347   1.468       .  S
C344        C345   1.406       .  A
C345        C346   1.411       .  A
C345        H353   1.083       .  S
C346        H354   1.083       .  S
C347        C348   1.223       .  T
C349        C350   1.223       .  T
C355        C363   1.469       .  S
C355        C356   1.407       .  A
C355        C360   1.406       .  A
C356        C357   1.411       .  A
C356        H365   1.083       .  S
C357        C358   1.407       .  A
C357        H366   1.083       .  S
C358        C361   1.468       .  S
C358        C359   1.407       .  A
C359        C360   1.410       .  A
C359        H367   1.083       .  S
C360        H368   1.083       .  S
C361        C362   1.223       .  T
C363        C364   1.223       .  T
C369        C377   1.454       .  S
C369        C370   1.404       .  A
C369        C374   1.403       .  A
C370        C371   1.404       .  A
C370        H379   1.083       .  S
C371        C372   1.402       .  A
C371        H380   1.083       .  S
C372        C375   1.454       .  S
C372        C373   1.406       .  A
C373        C374   1.406       .  A
C373        H381   1.083       .  S
C374        H382   1.083       .  S
C375        C376   1.214       .  T
C377        C378   1.215       .  T
C383        C391   1.454       .  S
C383        C384   1.405       .  A
C383        C388   1.403       .  A
C384        C385   1.405       .  A
C384        H393   1.083       .  S
C385        C386   1.403       .  A
C385        H394   1.083       .  S
C386        C389   1.454       .  S
C386        C387   1.405       .  A
C387        C388   1.404       .  A
C387        H395   1.083       .  S
C388        H396   1.083       .  S
C389        C390   1.215       .  T
C391        C392   1.215       .  T
C397        C405   1.449       .  S
C397        C398   1.404   1_545  A
C397        C402   1.402       .  A
C398        C399   1.403       .  A
C398        H407   1.083       .  S
C399        C400   1.402       .  A
C399        H408   1.083       .  S
C400        C403   1.449       .  S
C400        C401   1.404   1_565  A
C401        C402   1.402       .  A
C401        H409   1.084       .  S
C402        H410   1.083       .  S
C403        C404   1.211       .  T
C405        C406   1.211       .  T
C411        C419   1.445       .  S
C411        C412   1.402       .  A
C411        C416   1.403   1_545  A
C412        C413   1.401       .  A
C412        H421   1.083       .  S
C413        C414   1.404   1_545  A
C413        H422   1.084       .  S
C414        C417   1.445       .  S
C414        C415   1.401       .  A
C415        C416   1.401       .  A
C415        H423   1.083       .  S
C416        H424   1.083       .  S
C417        C418   1.209       .  T
C419        C420   1.209       .  T
C425        C433   1.452       .  S
C425        C426   1.403       .  A
C425        C430   1.404       .  A
C426        C427   1.403       .  A
C426        H435   1.083       .  S
C427        C428   1.404       .  A
C427        H436   1.083       .  S
C428        C431   1.452       .  S
C428        C429   1.403       .  A
C429        C430   1.404       .  A
C429        H437   1.083       .  S
C430        H438   1.083       .  S
C431        C432   1.213       .  T
C433        C434   1.213       .  T
C439        C447   1.441       .  S
C439        C440   1.403       .  A
C439        C444   1.400       .  A
C440        C441   1.401       .  A
C440        H449   1.083       .  S
C441        C442   1.402       .  A
C441        H450   1.083       .  S
C442        C445   1.440       .  S
C442        C443   1.401       .  A
C443        C444   1.398       .  A
C443        H451   1.084       .  S
C444        H452   1.083       .  S
C445        C446   1.206       .  T
C447        C448   1.207       .  T
C453        C461   1.440       .  S
C453        C454   1.401       .  A
C453        C458   1.402       .  A
C454        C455   1.398       .  A
C454        H463   1.084   1_554  S
C455        C456   1.401       .  A
C455        H464   1.083   1_554  S
C456        C459   1.440       .  S
C456        C457   1.402       .  A
C457        C458   1.400       .  A
C457        H465   1.083       .  S
C458        H466   1.083       .  S
C459        C460   1.206       .  T
C461        C462   1.206       .  T
C467        C475   1.449       .  S
C467        C468   1.404       .  A
C467        C472   1.402       .  A
C468        C469   1.404       .  A
C468        H477   1.083   1_565  S
C469        C470   1.404       .  A
C469        H478   1.083   1_565  S
C470        C473   1.448       .  S
C470        C471   1.402       .  A
C471        C472   1.401       .  A
C471        H479   1.083       .  S
C472        H480   1.083       .  S
C473        C474   1.211       .  T
C475        C476   1.211       .  T
C481        C489   1.430       .  S
C481        C482   1.401   1_556  A
C481        C486   1.399       .  A
C482        C483   1.395       .  A
C482        H491   1.084       .  S
C483        C484   1.399       .  A
C483        H492   1.084       .  S
C484        C487   1.430       .  S
C484        C485   1.401   1_554  A
C485        C486   1.395       .  A
C485        H493   1.084       .  S
C486        H494   1.083       .  S
C487        C488   1.199       .  T
C489        C490   1.199       .  T
C495        C503   1.429       .  S
C495        C496   1.400   1_556  A
C495        C500   1.400       .  A
C496        C497   1.396       .  A
C496        H505   1.084       .  S
C497        C498   1.400       .  A
C497        H506   1.084       .  S
C498        C501   1.430       .  S
C498        C499   1.399   1_554  A
C499        C500   1.395       .  A
C499        H507   1.084       .  S
C500        H508   1.084       .  S
C501        C502   1.199       .  T
C503        C504   1.198       .  T
C509        C517   1.450       .  S
C509        C510   1.403       .  A
C509        C514   1.403       .  A
C510        C511   1.404       .  A
C510        H519   1.083       .  S
C511        C512   1.404       .  A
C511        H520   1.083       .  S
C512        C515   1.450       .  S
C512        C513   1.403       .  A
C513        C514   1.402       .  A
C513        H521   1.083       .  S
C514        H522   1.083       .  S
C515        C516   1.212       .  T
C517        C518   1.212       .  T
C523        C531   1.461       .  S
C523        C524   1.406       .  A
C523        C528   1.405   1_556  A
C524        C525   1.407       .  A
C524        H533   1.083       .  S
C525        C526   1.404   1_556  A
C525        H534   1.083       .  S
C526        C529   1.461       .  S
C526        C527   1.406       .  A
C527        C528   1.407       .  A
C527        H535   1.083       .  S
C528        H536   1.083       .  S
C529        C530   1.218   1_554  T
C531        C532   1.219   1_556  T
C537        C545   1.455       .  S
C537        C538   1.402   1_554  A
C537        C542   1.406       .  A
C538        C539   1.404       .  A
C538        H547   1.083       .  S
C539        C540   1.404   1_556  A
C539        H548   1.083       .  S
C540        C543   1.455       .  S
C540        C541   1.404       .  A
C541        C542   1.406       .  A
C541        H549   1.083       .  S
C542        H550   1.083       .  S
C543        C544   1.215       .  T
C545        C546   1.215       .  T
C551        C559   1.431       .  S
C551        C552   1.398   1_455  A
C551        C556   1.402       .  A
C552        C553   1.396       .  A
C552        H561   1.083       .  S
C553        C554   1.402   1_655  A
C553        H562   1.084       .  S
C554        C557   1.432       .  S
C554        C555   1.399       .  A
C555        C556   1.396       .  A
C555        H563   1.084       .  S
C556        H564   1.084       .  S
C557        C558   1.201       .  T
C559        C560   1.201       .  T
C565        C573   1.430       .  S
C565        C566   1.401       .  A
C565        C570   1.398   1_455  A
C566        C567   1.398       .  A
C566        H575   1.083       .  S
C567        C568   1.400       .  A
C567        H576   1.083       .  S
C568        C571   1.430       .  S
C568        C569   1.399   1_455  A
C569        C570   1.392       .  A
C569        H577   1.084   1_556  S
C570        H578   1.084   1_556  S
C571        C572   1.200       .  T
C573        C574   1.200       .  T
C579        C587   1.454       .  S
C579        C580   1.405       .  A
C579        C584   1.403   1_545  A
C580        C581   1.406       .  A
C580        H589   1.083       .  S
C581        C582   1.404       .  A
C581        H590   1.083       .  S
C582        C585   1.454       .  S
C582        C583   1.404   1_545  A
C583        C584   1.403       .  A
C583        H591   1.083       .  S
C584        H592   1.083       .  S
C585        C586   1.214       .  T
C587        C588   1.215   1_455  T
C593        C601   1.446       .  S
C593        C594   1.402       .  A
C593        C598   1.403       .  A
C594        C595   1.401       .  A
C594        H603   1.083       .  S
C595        C596   1.403       .  A
C595        H604   1.083       .  S
C596        C599   1.446       .  S
C596        C597   1.402       .  A
C597        C598   1.402       .  A
C597        H605   1.083       .  S
C598        H606   1.083       .  S
C599        C600   1.210       .  T
C601        C602   1.210       .  T
C607        C615   1.450       .  S
C607        C608   1.402       .  A
C607        C612   1.404       .  A
C608        C609   1.402       .  A
C608        H617   1.083       .  S
C609        C610   1.403       .  A
C609        H618   1.083       .  S
C610        C613   1.450       .  S
C610        C611   1.403       .  A
C611        C612   1.403       .  A
C611        H619   1.083       .  S
C612        H620   1.083       .  S
C613        C614   1.212       .  T
C615        C616   1.212       .  T
C621        C629   1.451       .  S
C621        C622   1.403       .  A
C621        C626   1.403   1_545  A
C622        C623   1.404       .  A
C622        H631   1.083       .  S
C623        C624   1.404       .  A
C623        H632   1.083       .  S
C624        C627   1.451       .  S
C624        C625   1.403   1_545  A
C625        C626   1.402       .  A
C625        H633   1.083       .  S
C626        H634   1.083       .  S
C627        C628   1.212       .  T
C629        C630   1.212       .  T
C635        C643   1.456       .  S
C635        C636   1.404       .  A
C635        C640   1.404       .  A
C636        C637   1.406       .  A
C636        H645   1.083       .  S
C637        C638   1.405       .  A
C637        H646   1.083       .  S
C638        C641   1.456       .  S
C638        C639   1.403       .  A
C639        C640   1.405       .  A
C639        H647   1.083       .  S
C640        H648   1.083       .  S
C641        C642   1.216       .  T
C643        C644   1.215       .  T
C649        C657   1.451       .  S
C649        C650   1.403       .  A
C649        C654   1.403       .  A
C650        C651   1.403       .  A
C650        H659   1.083       .  S
C651        C652   1.403       .  A
C651        H660   1.083       .  S
C652        C655   1.451       .  S
C652        C653   1.404       .  A
C653        C654   1.404       .  A
C653        H661   1.083       .  S
C654        H662   1.083       .  S
C655        C656   1.212       .  T
C657        C658   1.212       .  T
C663        C671   1.449       .  S
C663        C664   1.403       .  A
C663        C668   1.403   1_545  A
C664        C665   1.401       .  A
C664        H673   1.083       .  S
C665        C666   1.402       .  A
C665        H674   1.083       .  S
C666        C669   1.448       .  S
C666        C667   1.404   1_545  A
C667        C668   1.403       .  A
C667        H675   1.083       .  S
C668        H676   1.083       .  S
C669        C670   1.211       .  T
C671        C672   1.211       .  T
C677        C685   1.453       .  S
C677        C678   1.404       .  A
C677        C682   1.403   1_655  A
C678        C679   1.404       .  A
C678        H687   1.083       .  S
C679        C680   1.403       .  A
C679        H688   1.083       .  S
C680        C683   1.453       .  S
C680        C681   1.404   1_655  A
C681        C682   1.404       .  A
C681        H689   1.083       .  S
C682        H690   1.083       .  S
C683        C684   1.214       .  T
C685        C686   1.214       .  T
C691        C699   1.430       .  S
C691        C692   1.400       .  A
C691        C696   1.399       .  A
C692        C693   1.395       .  A
C692        H701   1.084       .  S
C693        C694   1.399       .  A
C693        H702   1.084       .  S
C694        C697   1.431       .  S
C694        C695   1.401       .  A
C695        C696   1.396       .  A
C695        H703   1.084       .  S
C696        H704   1.084       .  S
C697        C698   1.200       .  T
C699        C700   1.200       .  T
C705        C713   1.431       .  S
C705        C706   1.401       .  A
C705        C710   1.398       .  A
C706        C707   1.395       .  A
C706        H715   1.084       .  S
C707        C708   1.398       .  A
C707        H716   1.083       .  S
C708        C711   1.432       .  S
C708        C709   1.402       .  A
C709        C710   1.396       .  A
C709        H717   1.084       .  S
C710        H718   1.083       .  S
C711        C712   1.201       .  T
C713        C714   1.200       .  T
C719        C727   1.448       .  S
C719        C720   1.404       .  A
C719        C724   1.402       .  A
C720        C721   1.403       .  A
C720        H729   1.083       .  S
C721        C722   1.403       .  A
C721        H730   1.083       .  S
C722        C725   1.449       .  S
C722        C723   1.403       .  A
C723        C724   1.402       .  A
C723        H731   1.083       .  S
C724        H732   1.083       .  S
C725        C726   1.211       .  T
C727        C728   1.211       .  T
C733        C741   1.452       .  S
C733        C734   1.403       .  A
C733        C738   1.404   1_565  A
C734        C735   1.404       .  A
C734        H743   1.083       .  S
C735        C736   1.403       .  A
C735        H744   1.083       .  S
C736        C739   1.452       .  S
C736        C737   1.403   1_565  A
C737        C738   1.404       .  A
C737        H745   1.083       .  S
C738        H746   1.083       .  S
C739        C740   1.213       .  T
C741        C742   1.213       .  T
C747        C755   1.454       .  S
C747        C748   1.404   1_455  A
C747        C752   1.403       .  A
C748        C749   1.404       .  A
C748        H757   1.083       .  S
C749        C750   1.403   1_655  A
C749        H758   1.083       .  S
C750        C753   1.454       .  S
C750        C751   1.404       .  A
C751        C752   1.405       .  A
C751        H759   1.083       .  S
C752        H760   1.083       .  S
C753        C754   1.214       .  T
C755        C756   1.215       .  T
C761        C769   1.453       .  S
C761        C762   1.403       .  A
C761        C766   1.404   1_455  A
C762        C763   1.404       .  A
C762        H771   1.083       .  S
C763        C764   1.405       .  A
C763        H772   1.083       .  S
C764        C767   1.453       .  S
C764        C765   1.403   1_455  A
C765        C766   1.404       .  A
C765        H773   1.083       .  S
C766        H774   1.083       .  S
C767        C768   1.214       .  T
C769        C770   1.214       .  T
C775        C783   1.431       .  S
C775        C776   1.400       .  A
C775        C780   1.400       .  A
C776        C777   1.395       .  A
C776        H785   1.084       .  S
C777        C778   1.399   1_545  A
C777        H786   1.084       .  S
C778        C781   1.431       .  S
C778        C779   1.400       .  A
C779        C780   1.396   1_565  A
C779        H787   1.084       .  S
C780        H788   1.084       .  S
C781        C782   1.200       .  T
C783        C784   1.201       .  T
C789        C797   1.434   1_545  S
C789        C790   1.399   1_545  A
C789        C794   1.402       .  A
C790        C791   1.397       .  A
C790        H799   1.083       .  S
C791        C792   1.402   1_565  A
C791        H800   1.084       .  S
C792        C795   1.434       .  S
C792        C793   1.399       .  A
C793        C794   1.397       .  A
C793        H801   1.083       .  S
C794        H802   1.084       .  S
C795        C796   1.202       .  T
C797        C798   1.202       .  T
C803        C811   1.446       .  S
C803        C804   1.402       .  A
C803        C808   1.402   1_565  A
C804        C805   1.401       .  A
C804        H813   1.083   1_455  S
C805        C806   1.402       .  A
C805        H814   1.083   1_455  S
C806        C809   1.447       .  S
C806        C807   1.404   1_565  A
C807        C808   1.403       .  A
C807        H815   1.083       .  S
C808        H816   1.083       .  S
C809        C810   1.210       .  T
C811        C812   1.210   1_565  T
