geometry optimzed in LAMMPS
_audit_creation_date              2020-11-30 
_audit_creation_method            'lammps2cif' 
_symmetry_space_group_name_H-M    'P1' 
_symmetry_Int_Tables_number       1 
_symmetry_cell_setting            triclinic 
loop_ 
_symmetry_equiv_pos_as_xyz 
  x,y,z 
_cell_length_a                    64.41875416 
_cell_length_b                    65.02857971410816 
_cell_length_c                    39.05812362246451 
_cell_angle_alpha                 85.83040134856314 
_cell_angle_beta                  91.39532208183857 
_cell_angle_gamma                 119.19379747029609 
loop_ 
_atom_site_label 
_atom_site_type_symbol 
_atom_site_fract_x 
_atom_site_fract_y 
_atom_site_fract_z 
_atom_site_charge 
Zr1        Zr  0.80627853  0.32964208  0.18294841     2.17500
O2          O  0.77733333  0.29912303  0.22301323    -0.51800
O3          O  0.79235689  0.35848066  0.18468770    -0.75000
O4          O  0.81715477  0.33857730  0.24227950    -0.81700
O5          O  0.76507154  0.30124220  0.10867759    -0.83500
O6          O  0.85712862  0.35424928  0.24479908    -0.79100
O7          O  0.76591374  0.30835852  0.16470224    -0.90700
O8          O  0.81620441  0.38964504  0.14814413    -0.76700
O9          O  0.84297443  0.36542142  0.18030899    -0.86200
O10         O  0.80895757  0.34735112  0.12654805    -0.85900
O11         O  0.83542466  0.31702073  0.19312654    -0.72600
O12         O  0.80389284  0.30115031  0.14489029    -0.84800
Zr13       Zr  0.87472796  0.34447624  0.09432594     2.26400
Zr14       Zr  0.87216857  0.35325096  0.18918238     2.06300
Zr15       Zr  0.80677993  0.31943112  0.08876465     2.10000
Zr16       Zr  0.84618296  0.38285799  0.12376444     1.78800
O17         O  0.78810552  0.28105177  0.06456045    -0.93600
O18         O  0.86962502  0.41653893  0.15778162    -0.41400
O19         O  0.84429087  0.35548136  0.08450482    -0.78000
O20         O  0.87712772  0.37268984  0.13303333    -0.96700
O21         O  0.87110955  0.32609929  0.15022882    -0.90000
O22         O  0.83734186  0.30871899  0.09656594    -0.92900
C23         C  0.79829168  0.37860487  0.16866581     1.00900
C24         C  0.75469048  0.29965257  0.13735414     1.13800
C25         C  0.83677368  0.34734547  0.25874215     1.04600
O26         O  0.89898734  0.39400900  0.20193695    -0.95000
O27         O  0.91081316  0.35883086  0.17700241    -0.90800
O28         O  0.91460670  0.35778214  0.11948501    -0.83900
C29         C  0.92282842  0.36065048  0.15034170     1.11200
O30         O  0.80961486  0.25870820  0.19457155    -0.97000
Zr31       Zr  0.83454788  0.29038390  0.15240521     1.88900
O32         O  0.88138334  0.31223391  0.08158360    -0.73600
O33         O  0.88781324  0.33768127  0.23550114    -0.52900
O34         O  0.85731889  0.27968898  0.19355682    -0.97600
O35         O  0.80463293  0.25531634  0.12590333    -0.54800
O36         O  0.85865651  0.28002047  0.11711246    -0.74200
C37         C  0.87402477  0.29069268  0.09256217     0.98200
O38         O  0.90758833  0.37426565  0.05842796    -0.63000
O39         O  0.78504904  0.33308385  0.05007153    -0.57800
O40         O  0.86354939  0.34355176  0.03362099    -0.94500
O41         O  0.82352232  0.32917867  0.03143762    -0.92900
O42         O  0.83045388  0.39797578  0.07711341    -0.93200
O43         O  0.87504146  0.41559281  0.08646197    -0.92000
C44         C  0.84406911  0.33774815  0.01717550     1.17000
H45         H  0.79582824  0.35024929  0.12151538     0.33000
H46         H  0.89250943  0.38674409  0.13084836     0.43800
H47         H  0.83623283  0.29868013  0.07876841     0.37400
H48         H  0.83331013  0.30953729  0.21602601     0.33800
H49         H  0.86438489  0.42814205  0.15028299     0.25600
H50         H  0.89658057  0.35090930  0.25041155     0.31600
H51         H  0.87000457  0.29489675  0.20128248     0.37500
H52         H  0.82634401  0.38671487  0.05906141     0.31900
H53         H  0.77152472  0.31850879  0.04201676     0.30800
H54         H  0.78296875  0.28390757  0.04144210     0.32500
H55         H  0.80956175  0.25764776  0.10149303     0.31500
H56         H  0.88321385  0.40877245  0.07405938     0.35500
H57         H  0.90992594  0.36550653  0.04055562     0.28200
H58         H  0.77166993  0.30734310  0.23742443     0.32400
H59         H  0.81177152  0.24511320  0.18976759     0.35300
H60         H  0.77768015  0.33954583  0.06488063     0.27900
H61         H  0.90126693  0.38383477  0.04605558     0.40700
H62         H  0.91337625  0.39397500  0.21138635     0.30800
H63         H  0.86330227  0.41117926  0.18152412     0.38400
H64         H  0.79002354  0.25676242  0.12562885     0.30300
H65         H  0.87386552  0.32592000  0.24941452     0.30300
H66         H  0.78659375  0.29403454  0.23857891     0.30600
Zr67       Zr  0.80942899  0.33236210  0.68355586     2.17500
O68         O  0.78050299  0.30527722  0.72691049    -0.51800
O69         O  0.79575819  0.36168643  0.68339460    -0.75000
O70         O  0.82271498  0.34126078  0.74249211    -0.81700
O71         O  0.76674874  0.30472685  0.61126529    -0.83500
O72         O  0.86260775  0.35547663  0.74376684    -0.79100
O73         O  0.76832771  0.30978398  0.66833835    -0.90700
O74         O  0.81879025  0.39206045  0.64503769    -0.76700
O75         O  0.84645250  0.36785796  0.67891283    -0.86200
O76         O  0.81108199  0.34930506  0.62686160    -0.85900
O77         O  0.83854359  0.31940995  0.69203319    -0.72600
O78         O  0.80586777  0.30299277  0.64592817    -0.84800
Zr79       Zr  0.87569844  0.34542660  0.59179255     2.26400
Zr80       Zr  0.87553552  0.35533413  0.68651298     2.06300
Zr81       Zr  0.80766238  0.32066465  0.58964284     2.10000
Zr82       Zr  0.84857252  0.38455302  0.62202246     1.78800
O83         O  0.78650167  0.28150515  0.56797158    -0.93600
O84         O  0.87086942  0.41911962  0.65485274    -0.41400
O85         O  0.84522736  0.35641704  0.58329228    -0.78000
O86         O  0.87927179  0.37406862  0.63033302    -0.96700
O87         O  0.87335770  0.32766744  0.64777914    -0.90000
O88         O  0.83812139  0.30981289  0.59583484    -0.92900
C89         C  0.80135907  0.38147687  0.66640517     1.00900
C90         C  0.75685100  0.30239329  0.64063735     1.13800
C91         C  0.84261097  0.34914067  0.75830285     1.04600
O92         O  0.90094436  0.39589746  0.70118744    -0.95000
O93         O  0.91495475  0.36445596  0.67099481    -0.90800
O94         O  0.91619224  0.35868114  0.61440662    -0.83900
C95         C  0.92575460  0.36421862  0.64415578     1.11200
O96         O  0.81467527  0.26390411  0.69939459    -0.97000
Zr97       Zr  0.83660390  0.29211203  0.65164672     1.88900
O98         O  0.88189843  0.31311899  0.57854023    -0.73600
O99         O  0.89223336  0.33798792  0.72852194    -0.52900
O100        O  0.86122131  0.28045142  0.68726434    -0.97600
O101        O  0.80509038  0.25637950  0.62860066    -0.54800
O102        O  0.85903229  0.28096178  0.61391531    -0.74200
C103        C  0.87440501  0.29154726  0.58928705     0.98200
O104        O  0.90655706  0.37590067  0.55364947    -0.63000
O105        O  0.78681843  0.33442358  0.54930532    -0.57800
O106        O  0.86312703  0.34254224  0.53200672    -0.94500
O107        O  0.82313308  0.32871493  0.53183351    -0.92900
O108        O  0.83391278  0.39828782  0.57240246    -0.93200
O109        O  0.87961962  0.41655328  0.58631919    -0.92000
C110        C  0.84326838  0.33651457  0.51665639     1.17000
H111        H  0.79789358  0.35212499  0.62195327     0.33000
H112        H  0.89468288  0.38802809  0.62749273     0.43800
H113        H  0.83638742  0.29946877  0.57814665     0.37400
H114        H  0.83686497  0.31210995  0.71498020     0.33800
H115        H  0.86723741  0.43120108  0.64389745     0.25600
H116        H  0.90069941  0.35017049  0.74510893     0.31600
H117        H  0.87782266  0.29238268  0.68104159     0.37500
H118        H  0.81786569  0.38497417  0.56850221     0.31900
H119        H  0.77187455  0.32006825  0.54412911     0.30800
H120        H  0.77221280  0.28081155  0.55685878     0.32500
H121        H  0.80974700  0.25722759  0.60435349     0.31500
H122        H  0.88506785  0.40856484  0.57107974     0.35500
H123        H  0.89843231  0.38281758  0.53903311     0.28200
H124        H  0.77761070  0.31525647  0.74197921     0.32400
H125        H  0.81329139  0.24872087  0.69357960     0.35300
H126        H  0.78172089  0.34351556  0.56282045     0.27900
H127        H  0.91678363  0.38870804  0.56849973     0.40700
H128        H  0.91077570  0.39470701  0.72029297     0.30800
H129        H  0.86268738  0.41486561  0.67748312     0.38400
H130        H  0.79103151  0.25875870  0.62736901     0.30300
H131        H  0.87844423  0.32517130  0.74154226     0.30300
H132        H  0.78889199  0.29856627  0.74136855     0.30600
Zr133      Zr  0.52008162  0.19914003  0.15382258     2.17500
O134        O  0.51861228  0.22719660  0.19055730    -0.51800
O135        O  0.56201606  0.21162984  0.16396282    -0.75000
O136        O  0.51235808  0.18432975  0.21361338    -0.81700
O137        O  0.54493420  0.24470916  0.07865362    -0.83500
O138        O  0.48253972  0.14639826  0.21545205    -0.79100
O139        O  0.54006353  0.23993067  0.13645271    -0.90700
O140        O  0.57077036  0.18573425  0.14047363    -0.76700
O141        O  0.51739385  0.16138365  0.15796013    -0.86200
O142        O  0.53981788  0.19810087  0.10390301    -0.85900
O143        O  0.47802485  0.17300458  0.15448108    -0.72600
O144        O  0.49973648  0.20659138  0.10614652    -0.84800
Zr145      Zr  0.47475201  0.13901703  0.05979597     2.26400
Zr146      Zr  0.47552482  0.13511580  0.15712519     2.06300
Zr147      Zr  0.52001868  0.20535806  0.05675042     2.10000
Zr148      Zr  0.53649507  0.16001887  0.10737288     1.78800
O149        O  0.50926685  0.23260806  0.02572247    -0.93600
O150        O  0.54106256  0.13076029  0.14454339    -0.41400
O151        O  0.51662117  0.16677066  0.05877215    -0.78000
O152        O  0.49481823  0.13177759  0.10788352    -0.96700
O153        O  0.45487718  0.14078509  0.10896285    -0.90000
O154        O  0.47846122  0.17752725  0.05593224    -0.92900
C155        C  0.57656484  0.20443034  0.15615907     1.00900
C156        C  0.54882512  0.25273161  0.10879383     1.13800
C157        C  0.49724992  0.16505369  0.22984572     1.04600
O158        O  0.48682777  0.10664998  0.18206539    -0.95000
O159        O  0.44460211  0.09854239  0.13849901    -0.90800
O160        O  0.44438529  0.09897400  0.08021087    -0.83900
C161        C  0.43643394  0.08896099  0.11030364     1.11200
O162        O  0.45492286  0.20792996  0.13683376    -0.97000
Zr163      Zr  0.45801730  0.17867426  0.10485143     1.88900
O164        O  0.43877231  0.13566022  0.03432383    -0.73600
O165        O  0.44116094  0.11981797  0.19563971    -0.52900
O166        O  0.42346361  0.15815638  0.14306810    -0.97600
O167        O  0.45130371  0.20696287  0.06848539    -0.54800
O168        O  0.42610264  0.15582419  0.06522316    -0.74200
C169        C  0.42370957  0.14235124  0.04111281     0.98200
O170        O  0.47706345  0.10872593  0.02929174    -0.63000
O171        O  0.55892998  0.22251724  0.02890438    -0.57800
O172        O  0.48779346  0.15301136  0.00076889    -0.94500
O173        O  0.51378184  0.19242321  0.99888176    -0.92900
O174        O  0.57186183  0.17831025  0.07058158    -0.93200
O175        O  0.54089370  0.13284313  0.07231723    -0.92000
C176        C  0.50187922  0.17284846  0.98462973     1.17000
H177        H  0.55618467  0.21041142  0.10174294     0.33000
H178        H  0.49268562  0.11599990  0.10795629     0.43800
H179        H  0.47162227  0.18030052  0.03501686     0.37400
H180        H  0.47096298  0.17473139  0.17485743     0.33800
H181        H  0.55635295  0.13218424  0.13725592     0.25600
H182        H  0.42764550  0.11737917  0.18063877     0.31600
H183        H  0.41273646  0.14340871  0.13208492     0.37500
H184        H  0.58345322  0.17465979  0.08280870     0.31900
H185        H  0.55915605  0.20924246  0.01832480     0.30800
H186        H  0.49746101  0.22315681  0.00864854     0.32500
H187        H  0.44969890  0.20173703  0.04491985     0.31500
H188        H  0.53072222  0.13130534  0.05218925     0.35500
H189        H  0.49257336  0.11692459  0.01698935     0.28200
H190        H  0.52958334  0.22890189  0.20970083     0.32400
H191        H  0.43818879  0.20442143  0.13456603     0.35300
H192        H  0.55833347  0.23274794  0.00929278     0.27900
H193        H  0.47916932  0.09847484  0.04744853     0.40700
H194        H  0.47307931  0.09542315  0.19677138     0.30800
H195        H  0.54426885  0.13710363  0.16752156     0.38400
H196        H  0.46670781  0.22179888  0.06803838     0.30300
H197        H  0.43785367  0.10370825  0.20376069     0.30300
H198        H  0.50249921  0.21896332  0.20110242     0.30600
Zr199      Zr  0.52084888  0.20258908  0.64939624     2.17500
O200        O  0.51862048  0.23014318  0.68646082    -0.51800
O201        O  0.56367892  0.21838861  0.65576505    -0.75000
O202        O  0.51975318  0.19140390  0.71001494    -0.81700
O203        O  0.52592380  0.24406764  0.57133655    -0.83500
O204        O  0.49947678  0.15146693  0.71669718    -0.79100
O205        O  0.53291073  0.24218264  0.62850373    -0.90700
O206        O  0.57405724  0.19555827  0.62689881    -0.76700
O207        O  0.52494001  0.16823020  0.65183604    -0.86200
O208        O  0.53725248  0.20292139  0.59534273    -0.85900
O209        O  0.48086667  0.17112078  0.65972659    -0.72600
O210        O  0.49297006  0.20314172  0.60774328    -0.84800
Zr211      Zr  0.47327148  0.13553519  0.56533675     2.26400
Zr212      Zr  0.48548878  0.13670556  0.66089628     2.06300
Zr213      Zr  0.50977738  0.20335862  0.55375214     2.10000
Zr214      Zr  0.53974785  0.16746833  0.59705241     1.78800
O215        O  0.49168747  0.22302345  0.51931735    -0.93600
O216        O  0.55330775  0.14332313  0.63069212    -0.41400
O217        O  0.51261305  0.16784295  0.55459631    -0.78000
O218        O  0.50069834  0.13425931  0.60694402    -0.96700
O219        O  0.45800840  0.13668890  0.61906780    -0.90000
O220        O  0.47037300  0.17096367  0.56229054    -0.92900
C221        C  0.57890674  0.21266165  0.64567855     1.00900
C222        C  0.53281583  0.25342360  0.60037230     1.13800
C223        C  0.51092897  0.17188350  0.72848199     1.04600
O224        O  0.50440862  0.11271346  0.67524974    -0.95000
O225        O  0.45254329  0.09923957  0.64956136    -0.90800
O226        O  0.44452053  0.09691495  0.59254650    -0.83900
C227        C  0.44021943  0.08851728  0.62404755     1.11200
O228        O  0.44455134  0.19216057  0.65617967    -0.97000
Zr229      Zr  0.45338582  0.17044958  0.61585015     1.88900
O230        O  0.43451338  0.12647576  0.54577531    -0.73600
O231        O  0.45656680  0.11480572  0.70714685    -0.52900
O232        O  0.42116706  0.14336351  0.65502753    -0.97600
O233        O  0.44133669  0.19780592  0.58840667    -0.54800
O234        O  0.42082785  0.14512766  0.57809749    -0.74200
C235        C  0.41854513  0.13148270  0.55417729     0.98200
O236        O  0.47690347  0.10541700  0.53654919    -0.63000
O237        O  0.54752546  0.22490395  0.52246507    -0.57800
O238        O  0.47951635  0.14657699  0.50435225    -0.94500
O239        O  0.49919774  0.18683330  0.49778749    -0.92900
O240        O  0.56863770  0.18833281  0.55061800    -0.93200
O241        O  0.54703066  0.14227101  0.56159206    -0.92000
C242        C  0.48893995  0.16623553  0.48594881     1.17000
H243        H  0.55257591  0.21678438  0.59110453     0.33000
H244        H  0.50104678  0.11959554  0.60654687     0.43800
H245        H  0.46074854  0.17166348  0.54337221     0.37400
H246        H  0.47515574  0.17225940  0.68177363     0.33800
H247        H  0.57017184  0.14987834  0.62378739     0.25600
H248        H  0.46475910  0.10946497  0.72440547     0.31600
H249        H  0.41906164  0.12749898  0.65179169     0.37500
H250        H  0.57901846  0.20437171  0.55828559     0.31900
H251        H  0.54642064  0.21462858  0.50421548     0.30800
H252        H  0.50432861  0.23406010  0.50284223     0.32500
H253        H  0.43564343  0.19195147  0.56546480     0.31500
H254        H  0.53172635  0.12735419  0.56165248     0.35500
H255        H  0.49314041  0.11373525  0.52642389     0.28200
H256        H  0.53198826  0.23475961  0.70266020     0.32400
H257        H  0.42734201  0.18678186  0.65383253     0.35300
H258        H  0.54698150  0.23847522  0.51011860     0.27900
H259        H  0.47763825  0.09470190  0.55529478     0.40700
H260        H  0.50991582  0.11618535  0.69909030     0.30800
H261        H  0.55399215  0.14778308  0.65456701     0.38400
H262        H  0.45639828  0.21271749  0.58371549     0.30300
H263        H  0.45403201  0.12660552  0.71833175     0.30300
H264        H  0.50402628  0.22073395  0.70066804     0.30600
Zr265      Zr  0.66800200  0.47859770  0.16518844     2.17500
O266        O  0.69636220  0.47780613  0.20701566    -0.51800
O267        O  0.64050182  0.43614688  0.16821571    -0.75000
O268        O  0.65587572  0.47756502  0.22434104    -0.81700
O269        O  0.70001434  0.46866223  0.09283507    -0.83500
O270        O  0.64381424  0.50491132  0.22497358    -0.79100
O271        O  0.69293467  0.46290511  0.15045858    -0.90700
O272        O  0.60964340  0.43017353  0.13313366    -0.76700
O273        O  0.63176150  0.47971810  0.16237259    -0.86200
O274        O  0.65207039  0.46565406  0.11026800    -0.85900
O275        O  0.68038823  0.51952247  0.17050066    -0.72600
O276        O  0.69769445  0.50514365  0.12363922    -0.84800
Zr277      Zr  0.65530863  0.53401634  0.06972744     2.26400
Zr278      Zr  0.64372150  0.52026591  0.16651487     2.06300
Zr279      Zr  0.68109279  0.49162224  0.06917923     2.10000
Zr280      Zr  0.61606191  0.46760329  0.10721674     1.78800
O281        O  0.72023483  0.51083235  0.04179740    -0.93600
O282        O  0.58115169  0.45310926  0.14440273    -0.41400
O283        O  0.64486987  0.49359994  0.06508159    -0.78000
O284        O  0.62580678  0.50794277  0.11190938    -0.96700
O285        O  0.67199751  0.54641537  0.12406486    -0.90000
O286        O  0.69151591  0.53205777  0.07220813    -0.92900
C287        C  0.62106575  0.42274921  0.15302115     1.00900
C288        C  0.70237033  0.46103988  0.12332121     1.13800
C289        C  0.64845053  0.48945445  0.24010217     1.04600
O290        O  0.60204738  0.50410958  0.18243537    -0.95000
O291        O  0.63905597  0.55379149  0.14954786    -0.90800
O292        O  0.64575671  0.56304659  0.09202532    -0.83900
C293        C  0.64118884  0.56676877  0.12225614     1.11200
O294        O  0.73772583  0.54955049  0.16941241    -0.97000
Zr295      Zr  0.70825690  0.54578969  0.12633960     1.88900
O296        O  0.68702646  0.57263169  0.05165328    -0.73600
O297        O  0.65690018  0.55161412  0.20590195    -0.52900
O298        O  0.71704981  0.57845798  0.16160825    -0.97600
O299        O  0.74574319  0.55324162  0.10110127    -0.54800
O300        O  0.71885998  0.58012762  0.08560892    -0.74200
C301        C  0.70840591  0.58578334  0.06115178     0.98200
O302        O  0.62338297  0.53405294  0.03497639    -0.63000
O303        O  0.66714346  0.45739924  0.03513314    -0.57800
O304        O  0.65949586  0.52738548  0.00976623    -0.94500
O305        O  0.67215818  0.50014290  0.01103029    -0.92900
O306        O  0.60427717  0.44236311  0.05927675    -0.93200
O307        O  0.58288524  0.46574992  0.07360503    -0.92000
C308        C  0.66497181  0.51347053  0.99516261     1.17000
H309        H  0.64980903  0.45011419  0.10637688     0.33000
H310        H  0.61166768  0.50952173  0.10957363     0.43800
H311        H  0.70219678  0.54133657  0.05337458     0.37400
H312        H  0.68733817  0.52412411  0.19274972     0.33800
H313        H  0.57424617  0.46355602  0.13844848     0.25600
H314        H  0.64431945  0.54573671  0.22383734     0.31600
H315        H  0.70173490  0.57829966  0.16435684     0.37500
H316        H  0.61288751  0.45306063  0.03904176     0.31900
H317        H  0.68176494  0.45859859  0.02537833     0.30800
H318        H  0.71830300  0.50159504  0.02174802     0.32500
H319        H  0.74564085  0.55927663  0.07712366     0.31500
H320        H  0.59022802  0.47954684  0.05670911     0.35500
H321        H  0.61564474  0.51856304  0.02478477     0.28200
H322        H  0.68738426  0.46318117  0.22197688     0.32400
H323        H  0.75063606  0.56614352  0.16639607     0.35300
H324        H  0.66111779  0.44352026  0.05192594     0.27900
H325        H  0.61149927  0.53285254  0.05175425     0.40700
H326        H  0.59696400  0.51464323  0.16985819     0.30800
H327        H  0.56956960  0.43766615  0.13590057     0.38400
H328        H  0.74394445  0.53736992  0.09905244     0.30300
H329        H  0.67083710  0.55195669  0.21768493     0.30300
H330        H  0.70033856  0.49096426  0.22176625     0.30600
Zr331      Zr  0.66359721  0.47531559  0.66609159     2.17500
O332        O  0.67965761  0.45818003  0.70961532    -0.51800
O333        O  0.63147520  0.43372089  0.67026464    -0.75000
O334        O  0.65996842  0.48421008  0.72490516    -0.81700
O335        O  0.69346674  0.46179930  0.59497320    -0.83500
O336        O  0.64680334  0.51079459  0.72288136    -0.79100
O337        O  0.69191018  0.46294099  0.65272455    -0.90700
O338        O  0.60027393  0.43117463  0.63893480    -0.76700
O339        O  0.63033976  0.48179660  0.66313036    -0.86200
O340        O  0.64551341  0.46184333  0.61244810    -0.85900
O341        O  0.68102604  0.51761044  0.66791701    -0.72600
O342        O  0.69371710  0.49895349  0.62307287    -0.84800
Zr343      Zr  0.65637537  0.53257875  0.56602085     2.26400
Zr344      Zr  0.64724983  0.52367404  0.66343553     2.06300
Zr345      Zr  0.67510518  0.48467722  0.56989148     2.10000
Zr346      Zr  0.61248234  0.46893574  0.60917967     1.78800
O347        O  0.71137463  0.49894572  0.53587589    -0.93600
O348        O  0.57805627  0.46130287  0.64354485    -0.41400
O349        O  0.64135490  0.49093319  0.56506392    -0.78000
O350        O  0.62719397  0.51048951  0.61052220    -0.96700
O351        O  0.67536390  0.54655430  0.61881947    -0.90000
O352        O  0.69015406  0.52641052  0.56909177    -0.92900
C353        C  0.61046599  0.42194452  0.65784270     1.00900
C354        C  0.69860435  0.45756405  0.62579244     1.13800
C355        C  0.65329951  0.49720165  0.73936070     1.04600
O356        O  0.60767400  0.51382219  0.68296678    -0.95000
O357        O  0.64306103  0.55704902  0.64298792    -0.90800
O358        O  0.64676644  0.56244360  0.58470313    -0.83900
C359        C  0.64341338  0.56800752  0.61430629     1.11200
O360        O  0.74133588  0.54488374  0.65921862    -0.97000
Zr361      Zr  0.70884114  0.54087115  0.62192038     1.88900
O362        O  0.69055125  0.56894923  0.54542342    -0.73600
O363        O  0.66742937  0.55716214  0.69903113    -0.52900
O364        O  0.72100205  0.57283070  0.65994427    -0.97600
O365        O  0.74321554  0.54350528  0.59287927    -0.54800
O366        O  0.72059693  0.57625444  0.58283255    -0.74200
C367        C  0.71147637  0.58204095  0.55667549     0.98200
O368        O  0.62716012  0.53649947  0.52903211    -0.63000
O369        O  0.65696339  0.44728089  0.54266803    -0.57800
O370        O  0.65663106  0.52109251  0.50770364    -0.94500
O371        O  0.66478634  0.49068411  0.51178339    -0.92900
O372        O  0.59762927  0.43999763  0.56596156    -0.93200
O373        O  0.58217519  0.47182513  0.57396075    -0.92000
C374        C  0.65908689  0.50474032  0.49469687     1.17000
H375        H  0.64102146  0.44559733  0.60959247     0.33000
H376        H  0.61414632  0.51383613  0.60830905     0.43800
H377        H  0.70083182  0.53428929  0.54972259     0.37400
H378        H  0.68897486  0.52269008  0.68944785     0.33800
H379        H  0.56513765  0.44598834  0.63647853     0.25600
H380        H  0.65541411  0.55511933  0.71624389     0.31600
H381        H  0.71194729  0.58098266  0.65229449     0.37500
H382        H  0.61061299  0.44602966  0.54862989     0.31900
H383        H  0.66955122  0.44851834  0.52723614     0.30800
H384        H  0.72140612  0.49374514  0.54934169     0.32500
H385        H  0.74377852  0.55124335  0.56987680     0.31500
H386        H  0.59033540  0.47961742  0.55180626     0.35500
H387        H  0.61888899  0.52167229  0.51716775     0.28200
H388        H  0.66685339  0.44915827  0.72695652     0.32400
H389        H  0.75451575  0.56111878  0.65383990     0.35300
H390        H  0.65518261  0.43511598  0.56090330     0.27900
H391        H  0.61483980  0.53544646  0.54483353     0.40700
H392        H  0.61024962  0.52721837  0.69634742     0.30800
H393        H  0.58173747  0.45775109  0.66727690     0.38400
H394        H  0.73853533  0.52700520  0.58854008     0.30300
H395        H  0.67932727  0.55452884  0.71228118     0.30300
H396        H  0.69217845  0.47161279  0.72143825     0.30600
Zr397      Zr  0.32881058  0.81476388  0.17930916     2.17500
O398        O  0.30236815  0.78511882  0.14086806    -0.51800
O399        O  0.35949272  0.80335946  0.17320083    -0.75000
O400        O  0.33617024  0.82771291  0.11903782    -0.81700
O401        O  0.29982282  0.77132875  0.25830054    -0.83500
O402        O  0.34670225  0.86645777  0.11250123    -0.79100
O403        O  0.30680527  0.77467999  0.20104828    -0.90700
O404        O  0.39129429  0.82794319  0.20374088    -0.76700
O405        O  0.36328897  0.85237210  0.17613852    -0.86200
O406        O  0.34783548  0.81696887  0.23282734    -0.85900
O407        O  0.31283210  0.84127969  0.17114330    -0.72600
O408        O  0.30004560  0.80950410  0.22200042    -0.84800
Zr409      Zr  0.34052624  0.87876127  0.26539557     2.26400
Zr410      Zr  0.34783967  0.87903707  0.16928318     2.06300
Zr411      Zr  0.31972006  0.81219772  0.27541212     2.10000
Zr412      Zr  0.38203234  0.85514702  0.23009727     1.78800
O413        O  0.28284469  0.78933657  0.30827649    -0.93600
O414        O  0.41707404  0.87979122  0.19408620    -0.41400
O415        O  0.35450202  0.85057909  0.27398674    -0.78000
O416        O  0.36879796  0.88387445  0.22202457    -0.96700
O417        O  0.32044173  0.87532639  0.21254516    -0.90000
O418        O  0.30609541  0.84047345  0.26893467    -0.92900
C419        C  0.38046618  0.81028151  0.18518459     1.00900
C420        C  0.29780234  0.76245413  0.22917052     1.13800
C421        C  0.34207022  0.84688544  0.10056916     1.04600
O422        O  0.38832325  0.90683379  0.15013000    -0.95000
O423        O  0.35287504  0.91641685  0.18232328    -0.90800
O424        O  0.35038024  0.91828157  0.23983672    -0.83900
C425        C  0.35331683  0.92718224  0.20859040     1.11200
O426        O  0.25423851  0.81118746  0.17991449    -0.97000
Zr427      Zr  0.28605068  0.83765535  0.21626174     1.88900
O428        O  0.30744515  0.88307698  0.28371026    -0.73600
O429        O  0.33053623  0.89370656  0.12421066    -0.52900
O430        O  0.27251191  0.85930956  0.17674874    -0.97600
O431        O  0.25171068  0.80660564  0.24833374    -0.54800
O432        O  0.27489280  0.85967449  0.25339839    -0.74200
C433        C  0.28550445  0.87490465  0.27591532     0.98200
O434        O  0.37129812  0.91000076  0.29758062    -0.63000
O435        O  0.33975498  0.79369862  0.30800125    -0.57800
O436        O  0.33828915  0.86684457  0.32629106    -0.94500
O437        O  0.32684312  0.82764175  0.33167647    -0.92900
O438        O  0.39750697  0.83957294  0.27643835    -0.93200
O439        O  0.41381754  0.88621174  0.26100316    -0.92000
C440        C  0.33336367  0.84759014  0.34419657     1.17000
H441        H  0.35176379  0.80446621  0.23701909     0.33000
H442        H  0.38225647  0.89962102  0.22186129     0.43800
H443        H  0.29604890  0.83832421  0.28833335     0.37400
H444        H  0.30472403  0.83904715  0.14946056     0.33800
H445        H  0.42845665  0.87412141  0.20071843     0.25600
H446        H  0.31896530  0.89667869  0.13613659     0.31600
H447        H  0.28247180  0.87608162  0.18168223     0.37500
H448        H  0.38542366  0.82270110  0.28009357     0.31900
H449        H  0.32842279  0.78381956  0.32671389     0.30800
H450        H  0.28694983  0.78137772  0.32770591     0.32500
H451        H  0.25378614  0.81157052  0.27210826     0.31500
H452        H  0.40639969  0.89476565  0.27069407     0.35500
H453        H  0.37906090  0.90235598  0.31143126     0.28200
H454        H  0.31276831  0.78297943  0.12489716     0.32400
H455        H  0.24083080  0.81425455  0.18333823     0.35300
H456        H  0.33993618  0.78219080  0.29292292     0.27900
H457        H  0.38357373  0.92052097  0.28029715     0.40700
H458        H  0.39222951  0.89836225  0.13357257     0.30800
H459        H  0.41220125  0.87463810  0.17060369     0.38400
H460        H  0.25433195  0.79277800  0.24981153     0.30300
H461        H  0.34348339  0.90958804  0.11642411     0.30300
H462        H  0.29455547  0.79252656  0.12657403     0.30600
Zr463      Zr  0.32866291  0.81535908  0.67883852     2.17500
O464        O  0.30147014  0.78769114  0.63873076    -0.51800
O465        O  0.36071734  0.80483732  0.67513390    -0.75000
O466        O  0.33758909  0.83027204  0.61910504    -0.81700
O467        O  0.29980357  0.76962593  0.75350801    -0.83500
O468        O  0.34661740  0.86874709  0.61514957    -0.79100
O469        O  0.30809108  0.77415845  0.69644950    -0.90700
O470        O  0.39047302  0.82852025  0.70958518    -0.76700
O471        O  0.36212499  0.85374965  0.67870512    -0.86200
O472        O  0.34620240  0.81650015  0.73329642    -0.85900
O473        O  0.31171477  0.84132301  0.67240032    -0.72600
O474        O  0.29813636  0.80854507  0.71991867    -0.84800
Zr475      Zr  0.33650734  0.87599243  0.76941704     2.26400
Zr476      Zr  0.34562370  0.87971350  0.67281012     2.06300
Zr477      Zr  0.31623576  0.80943517  0.77401594     2.10000
Zr478      Zr  0.37967531  0.85520493  0.73341995     1.78800
O479        O  0.27744692  0.78615218  0.80196601    -0.93600
O480        O  0.41406050  0.88013954  0.69633856    -0.41400
O481        O  0.35045730  0.84797652  0.77583466    -0.78000
O482        O  0.36564653  0.88327143  0.72633142    -0.96700
O483        O  0.31763030  0.87437493  0.71607411    -0.90000
O484        O  0.30233166  0.83758298  0.76988318    -0.92900
C485        C  0.38112199  0.81163141  0.68951940     1.00900
C486        C  0.29897525  0.76136751  0.72419923     1.13800
C487        C  0.34284441  0.84979410  0.60185269     1.04600
O488        O  0.38421805  0.91067740  0.65102445    -0.95000
O489        O  0.35084617  0.91672871  0.68929256    -0.90800
O490        O  0.34835556  0.91650540  0.74738411    -0.83900
C491        C  0.35159747  0.92654995  0.71686280     1.11200
O492        O  0.25234798  0.81175164  0.67836469    -0.97000
Zr493      Zr  0.28373106  0.83665388  0.71652179     1.88900
O494        O  0.30373533  0.88126554  0.78631892    -0.73600
O495        O  0.32309958  0.89279330  0.63478064    -0.52900
O496        O  0.27250867  0.85987301  0.67625815    -0.97600
O497        O  0.24841872  0.80607677  0.74733468    -0.54800
O498        O  0.27227718  0.85905176  0.75315714    -0.74200
C499        C  0.28222399  0.87372435  0.77667444     0.98200
O500        O  0.36705539  0.90357257  0.80628454    -0.63000
O501        O  0.33331641  0.78907861  0.80931770    -0.57800
O502        O  0.33259558  0.86134106  0.82904011    -0.94500
O503        O  0.32319661  0.82264002  0.83129515    -0.92900
O504        O  0.39362798  0.84176299  0.78425255    -0.93200
O505        O  0.41285314  0.88601400  0.76287568    -0.92000
C506        C  0.32868909  0.84185418  0.84525468     1.17000
H507        H  0.35036118  0.80417274  0.73765474     0.33000
H508        H  0.37878766  0.89912419  0.72718761     0.43800
H509        H  0.29178467  0.83480914  0.78893073     0.37400
H510        H  0.30398661  0.83941674  0.65044396     0.33800
H511        H  0.41218704  0.87084855  0.67637674     0.25600
H512        H  0.33445337  0.90308187  0.61632704     0.31600
H513        H  0.27757997  0.87489212  0.68706429     0.37500
H514        H  0.38357405  0.84116216  0.80349614     0.31900
H515        H  0.31964216  0.77607396  0.82228830     0.30800
H516        H  0.27738778  0.77169652  0.81199713     0.32500
H517        H  0.24923111  0.81178980  0.77040630     0.31500
H518        H  0.41150347  0.90046853  0.75810482     0.35500
H519        H  0.37576941  0.89529665  0.81508531     0.28200
H520        H  0.31152019  0.78564702  0.62200938     0.32400
H521        H  0.23889030  0.81460314  0.68257356     0.35300
H522        H  0.33810551  0.78108487  0.79311652     0.27900
H523        H  0.37865292  0.91656149  0.79057896     0.40700
H524        H  0.38225073  0.91212658  0.62590605     0.30800
H525        H  0.41128390  0.89314534  0.68700284     0.38400
H526        H  0.25137525  0.79252472  0.75130930     0.30300
H527        H  0.31143729  0.87860139  0.62341837     0.30300
H528        H  0.29429695  0.79618301  0.62550584     0.30600
Zr529      Zr  0.20076230  0.53336327  0.19308861     2.17500
O530        O  0.23292026  0.54044147  0.15414022    -0.51800
O531        O  0.21428755  0.57575174  0.18655893    -0.75000
O532        O  0.18892446  0.52956620  0.13275963    -0.81700
O533        O  0.24292924  0.54213088  0.26808870    -0.83500
O534        O  0.14917199  0.50535544  0.13112207    -0.79100
O535        O  0.24107175  0.54675419  0.21019137    -0.90700
O536        O  0.18851194  0.58274210  0.21565338    -0.76700
O537        O  0.16389195  0.53328818  0.19268048    -0.86200
O538        O  0.19837890  0.54788128  0.24627357    -0.85900
O539        O  0.17211377  0.49232440  0.18914680    -0.72600
O540        O  0.20378597  0.50681988  0.23679826    -0.84800
Zr541      Zr  0.13366668  0.48074952  0.28684490     2.26400
Zr542      Zr  0.13518177  0.49264502  0.18968161     2.06300
Zr543      Zr  0.20145359  0.52189031  0.28962601     2.10000
Zr544      Zr  0.16076878  0.54664558  0.24650518     1.78800
O545        O  0.21921987  0.50125708  0.32243629    -0.93600
O546        O  0.13579549  0.55833221  0.21180632    -0.41400
O547        O  0.16377670  0.52111595  0.29094032    -0.78000
O548        O  0.13017575  0.50648753  0.24238888    -0.96700
O549        O  0.13700191  0.46646703  0.23411940    -0.90000
O550        O  0.17124551  0.48155280  0.28770321    -0.92900
C551        C  0.20718960  0.58951799  0.19734034     1.00900
C552        C  0.25267790  0.54888588  0.23794130     1.13800
C553        C  0.16942741  0.51842396  0.11638124     1.04600
O554        O  0.10883109  0.50863405  0.17367257    -0.95000
O555        O  0.09825128  0.45846264  0.20684307    -0.90800
O556        O  0.09475173  0.45192356  0.26482687    -0.83900
C557        C  0.08679324  0.44686196  0.23420779     1.11200
O558        O  0.19817385  0.46108654  0.19421033    -0.97000
Zr559      Zr  0.17348302  0.46618983  0.23542578     1.88900
O560        O  0.12784644  0.44286744  0.30969218    -0.73600
O561        O  0.11958242  0.46598545  0.14340690    -0.52900
O562        O  0.15094076  0.43236304  0.20129713    -0.97600
O563        O  0.20324636  0.45899795  0.26531167    -0.54800
O564        O  0.14876959  0.43221015  0.27592180    -0.74200
C565        C  0.13432913  0.42819571  0.30106260     0.98200
O566        O  0.10123850  0.48060261  0.31811138    -0.63000
O567        O  0.22544294  0.55806470  0.31837116    -0.57800
O568        O  0.14477926  0.49041319  0.34627434    -0.94500
O569        O  0.18460186  0.51592405  0.34682777    -0.92900
O570        O  0.17878371  0.57553547  0.28956303    -0.93200
O571        O  0.13241386  0.55058633  0.28182167    -0.92000
C572        C  0.16409551  0.50402890  0.36165469     1.17000
H573        H  0.21136597  0.56352021  0.24939849     0.33000
H574        H  0.11466352  0.50531651  0.24349195     0.43800
H575        H  0.17262322  0.47252445  0.30750691     0.37400
H576        H  0.17415380  0.48702996  0.16763504     0.33800
H577        H  0.14056501  0.57451870  0.21808800     0.25600
H578        H  0.10255993  0.46150853  0.14150298     0.31600
H579        H  0.13413852  0.42844940  0.20397535     0.37500
H580        H  0.17987477  0.59028363  0.27871479     0.31900
H581        H  0.21388629  0.56246024  0.32689067     0.30800
H582        H  0.23300394  0.51380547  0.33385491     0.32500
H583        H  0.19956495  0.45799744  0.29002875     0.31500
H584        H  0.12349880  0.53507216  0.29479816     0.35500
H585        H  0.10851176  0.49589414  0.32882509     0.28200
H586        H  0.23505040  0.55379076  0.13796853     0.32400
H587        H  0.19724395  0.44572434  0.20131317     0.35300
H588        H  0.23127221  0.55307691  0.33931169     0.27900
H589        H  0.09084788  0.48215020  0.30019497     0.40700
H590        H  0.09312247  0.49459618  0.17064568     0.30800
H591        H  0.14184919  0.56054098  0.18800712     0.38400
H592        H  0.21836830  0.47398738  0.26155646     0.30300
H593        H  0.11964684  0.45139940  0.15249734     0.30300
H594        H  0.22674680  0.52648623  0.14037015     0.30600
Zr595      Zr  0.20083848  0.53082195  0.69283223     2.17500
O596        O  0.22995681  0.52911404  0.65628422    -0.51800
O597        O  0.21429619  0.57327252  0.68514699    -0.75000
O598        O  0.18828582  0.52908839  0.63319827    -0.81700
O599        O  0.24477252  0.54767259  0.76443582    -0.83500
O600        O  0.14839687  0.50535400  0.63272504    -0.79100
O601        O  0.24181143  0.55099221  0.70669659    -0.90700
O602        O  0.18947795  0.58043475  0.71650773    -0.76700
O603        O  0.16375093  0.53022326  0.69350971    -0.86200
O604        O  0.19937852  0.54592171  0.74583930    -0.85900
O605        O  0.17270756  0.48961215  0.69016913    -0.72600
O606        O  0.20557659  0.50525075  0.73652476    -0.84800
Zr607      Zr  0.13594732  0.47914148  0.78819679     2.26400
Zr608      Zr  0.13569594  0.48940906  0.69109534     2.06300
Zr609      Zr  0.20417764  0.52106838  0.78888545     2.10000
Zr610      Zr  0.16169862  0.54430524  0.74723534     1.78800
O611        O  0.22467313  0.50044093  0.81318770    -0.93600
O612        O  0.13731819  0.55733892  0.71372898    -0.41400
O613        O  0.16611451  0.51956419  0.79138060    -0.78000
O614        O  0.13155577  0.50407098  0.74353319    -0.96700
O615        O  0.13847306  0.46393899  0.73593038    -0.90000
O616        O  0.17383491  0.48049720  0.78851774    -0.92900
C617        C  0.20765813  0.58712983  0.69707221     1.00900
C618        C  0.25399029  0.55565330  0.73401808     1.13800
C619        C  0.16845322  0.51861766  0.61741194     1.04600
O620        O  0.10463618  0.49905768  0.67433590    -0.95000
O621        O  0.09859707  0.45611698  0.70910349    -0.90800
O622        O  0.09581653  0.45170164  0.76742556    -0.83900
C623        C  0.08731878  0.44594929  0.73716312     1.11200
O624        O  0.20207519  0.46210101  0.69582713    -0.97000
Zr625      Zr  0.17534096  0.46435560  0.73667717     1.88900
O626        O  0.12940579  0.44096373  0.81038947    -0.73600
O627        O  0.12520909  0.46168732  0.64659696    -0.52900
O628        O  0.15436993  0.43055631  0.70204864    -0.97600
O629        O  0.20308481  0.45502615  0.76855968    -0.54800
O630        O  0.14941524  0.42985035  0.77559731    -0.74200
C631        C  0.13499514  0.42588945  0.80072650     0.98200
O632        O  0.10479245  0.48012229  0.82122073    -0.63000
O633        O  0.22635904  0.55334123  0.82587463    -0.57800
O634        O  0.14870139  0.48865849  0.84705010    -0.94500
O635        O  0.18846024  0.51478395  0.84672751    -0.92900
O636        O  0.17960491  0.57312487  0.79035975    -0.93200
O637        O  0.13239467  0.54600497  0.78343013    -0.92000
C638        C  0.16816904  0.50241932  0.86193025     1.17000
H639        H  0.21222613  0.56171671  0.74838571     0.33000
H640        H  0.11598738  0.50272599  0.74501247     0.43800
H641        H  0.17533227  0.47159590  0.80839756     0.37400
H642        H  0.17461945  0.48430252  0.66858969     0.33800
H643        H  0.14281968  0.55913930  0.68969463     0.25600
H644        H  0.12690940  0.44839099  0.65756913     0.31600
H645        H  0.13729217  0.42515096  0.70597673     0.37500
H646        H  0.18592486  0.56583111  0.80775892     0.31900
H647        H  0.24194214  0.55399521  0.82935207     0.30800
H648        H  0.23759653  0.51209596  0.82697906     0.32500
H649        H  0.19825893  0.45299348  0.79297740     0.31500
H650        H  0.13035120  0.53502437  0.80360790     0.35500
H651        H  0.11299779  0.49426361  0.83458534     0.28200
H652        H  0.23396075  0.54170949  0.63774809     0.32400
H653        H  0.20340446  0.44798855  0.70377666     0.35300
H654        H  0.22995684  0.56787081  0.81142211     0.27900
H655        H  0.09568158  0.48431355  0.80401456     0.40700
H656        H  0.09582191  0.48825537  0.65620857     0.30800
H657        H  0.12120111  0.54339717  0.71440836     0.38400
H658        H  0.21851777  0.46982202  0.76672118     0.30300
H659        H  0.10789052  0.45515680  0.64334496     0.30300
H660        H  0.22111219  0.51405087  0.64513577     0.30600
Zr661      Zr  0.48548893  0.68161462  0.17552275     2.17500
O662        O  0.47587769  0.70461038  0.13246196    -0.51800
O663        O  0.44280137  0.65158797  0.17782947    -0.75000
O664        O  0.49062189  0.67358902  0.11646310    -0.81700
O665        O  0.47417094  0.71349907  0.24489528    -0.83500
O666        O  0.51603004  0.65878054  0.11738692    -0.79100
O667        O  0.47086288  0.70822763  0.18779659    -0.90700
O668        O  0.43800176  0.62108543  0.21516850    -0.76700
O669        O  0.48800638  0.64625222  0.18276583    -0.86200
O670        O  0.47240009  0.66616764  0.23282985    -0.85900
O671        O  0.52741507  0.69504612  0.16774403    -0.72600
O672        O  0.51237757  0.71200735  0.21158844    -0.84800
Zr673      Zr  0.54224359  0.67138257  0.27014928     2.26400
Zr674      Zr  0.52943382  0.65921062  0.17571365     2.06300
Zr675      Zr  0.49847535  0.69617210  0.26846567     2.10000
Zr676      Zr  0.47581397  0.63119730  0.24057747     1.78800
O677        O  0.51839605  0.73626704  0.28683924    -0.93600
O678        O  0.46502632  0.59432730  0.21475757    -0.41400
O679        O  0.50127123  0.66068607  0.27754080    -0.78000
O680        O  0.51665408  0.64169377  0.23257095    -0.96700
O681        O  0.55578277  0.68782943  0.21335605    -0.90000
O682        O  0.53957755  0.70693763  0.26349423    -0.92900
C683        C  0.42985006  0.63141561  0.19431676     1.00900
C684        C  0.46752701  0.71665295  0.21448521     1.13800
C685        C  0.50247635  0.66546949  0.10152677     1.04600
O686        O  0.51464969  0.61768620  0.16699085    -0.95000
O687        O  0.56260099  0.65402769  0.19352846    -0.90800
O688        O  0.56984355  0.65838300  0.25056098    -0.83900
C689        C  0.57419287  0.65412186  0.22059853     1.11200
O690        O  0.55798415  0.75417112  0.16403794    -0.97000
Zr691      Zr  0.55390170  0.72327893  0.20712525     1.88900
O692        O  0.58123709  0.70329062  0.28222917    -0.73600
O693        O  0.55840949  0.67134480  0.12899087    -0.52900
O694        O  0.58562677  0.73241796  0.16609559    -0.97600
O695        O  0.56139937  0.76006563  0.23047379    -0.54800
O696        O  0.58959530  0.73373782  0.24269809    -0.74200
C697        C  0.59524867  0.72401369  0.26861354     0.98200
O698        O  0.54195616  0.64040893  0.30975812    -0.63000
O699        O  0.46455594  0.68406792  0.30679249    -0.57800
O700        O  0.53385386  0.67568195  0.32929405    -0.94500
O701        O  0.50660980  0.68850991  0.32719358    -0.92900
O702        O  0.44778729  0.61987951  0.28818250    -0.93200
O703        O  0.47481191  0.60155668  0.28342486    -0.92000
C704        C  0.51966322  0.68133047  0.34353904     1.17000
H705        H  0.45647645  0.66316979  0.23743670     0.33000
H706        H  0.51857457  0.62786541  0.23625534     0.43800
H707        H  0.54871071  0.71766189  0.28070098     0.37400
H708        H  0.53229997  0.70191888  0.14461198     0.33800
H709        H  0.44819527  0.58374850  0.22165376     0.25600
H710        H  0.57359598  0.68348087  0.13820256     0.31600
H711        H  0.57739710  0.72389913  0.14569981     0.37500
H712        H  0.45529877  0.63311991  0.30335400     0.31900
H713        H  0.46615683  0.69900533  0.31423555     0.30800
H714        H  0.51139449  0.73494806  0.30971251     0.32500
H715        H  0.56323032  0.75785892  0.25548303     0.31500
H716        H  0.49168069  0.60600265  0.28727800     0.35500
H717        H  0.52716915  0.63418397  0.32359636     0.28200
H718        H  0.46336400  0.69299735  0.11812156     0.32400
H719        H  0.57465044  0.76698196  0.16548275     0.35300
H720        H  0.45043020  0.67781109  0.29188412     0.27900
H721        H  0.53888889  0.62736348  0.29525376     0.40700
H722        H  0.52131240  0.61774248  0.14438446     0.30800
H723        H  0.46445718  0.59788207  0.18978553     0.38400
H724        H  0.54614825  0.76025406  0.22819892     0.30300
H725        H  0.56083456  0.65761808  0.12641959     0.30300
H726        H  0.49013693  0.71332289  0.11743325     0.30600
Zr727      Zr  0.48766073  0.68683530  0.67769996     2.17500
O728        O  0.47114653  0.70530856  0.63728423    -0.51800
O729        O  0.44497755  0.65760569  0.68173100    -0.75000
O730        O  0.49250138  0.68149250  0.61711914    -0.81700
O731        O  0.47823822  0.71678282  0.75086607    -0.83500
O732        O  0.51596901  0.66468276  0.61554344    -0.79100
O733        O  0.47875050  0.71713394  0.69276299    -0.90700
O734        O  0.43933745  0.62520586  0.71520796    -0.76700
O735        O  0.48987143  0.65134388  0.68042175    -0.86200
O736        O  0.47473788  0.66897722  0.73422018    -0.85900
O737        O  0.52939607  0.70012363  0.66775976    -0.72600
O738        O  0.51485687  0.71542563  0.71574233    -0.84800
Zr739      Zr  0.54491550  0.67256632  0.76703748     2.26400
Zr740      Zr  0.53108992  0.66408697  0.67208911     2.06300
Zr741      Zr  0.50118655  0.69713554  0.77179345     2.10000
Zr742      Zr  0.47782792  0.63372519  0.73707698     1.78800
O743        O  0.52014122  0.73509656  0.79715126    -0.93600
O744        O  0.46602589  0.59985911  0.70298238    -0.41400
O745        O  0.50391583  0.66150288  0.77580553    -0.78000
O746        O  0.51870763  0.64445148  0.72795714    -0.96700
O747        O  0.55786184  0.69101536  0.71115405    -0.90000
O748        O  0.54216927  0.70812761  0.76459793    -0.92900
C749        C  0.43158320  0.63711154  0.69692167     1.00900
C750        C  0.47407112  0.72333849  0.72068953     1.13800
C751        C  0.50303560  0.67255133  0.60093849     1.04600
O752        O  0.51541375  0.62329095  0.65806159    -0.95000
O753        O  0.56364067  0.65710886  0.68455628    -0.90800
O754        O  0.57203933  0.66066129  0.74146047    -0.83900
C755        C  0.57565620  0.65670378  0.71080165     1.11200
O756        O  0.55816381  0.75723849  0.66717354    -0.97000
Zr757      Zr  0.55613783  0.72651871  0.70889208     1.88900
O758        O  0.58307398  0.70465710  0.78229699    -0.73600
O759        O  0.56257562  0.67924091  0.62848910    -0.52900
O760        O  0.58813512  0.73789485  0.66725559    -0.97600
O761        O  0.56446681  0.76238344  0.73583015    -0.54800
O762        O  0.59183366  0.73582660  0.74386370    -0.74200
C763        C  0.59709633  0.72565011  0.76960941     0.98200
O764        O  0.54738363  0.64188539  0.80373447    -0.63000
O765        O  0.46664382  0.68216893  0.80993418    -0.57800
O766        O  0.53552858  0.67194790  0.82777997    -0.94500
O767        O  0.50960014  0.68627920  0.82891777    -0.92900
O768        O  0.45152929  0.62020600  0.78718465    -0.93200
O769        O  0.47776148  0.60110783  0.77206901    -0.92000
C770        C  0.52180159  0.67745376  0.84369778     1.17000
H771        H  0.45906471  0.66610368  0.74025563     0.33000
H772        H  0.52053986  0.63052581  0.72987028     0.43800
H773        H  0.55134465  0.71824342  0.78239737     0.37400
H774        H  0.53420694  0.70779839  0.64500421     0.33800
H775        H  0.45095498  0.58733186  0.71371789     0.25600
H776        H  0.55732757  0.66690898  0.61183816     0.31600
H777        H  0.59178460  0.72472796  0.66895429     0.37500
H778        H  0.46218863  0.62686271  0.80683950     0.31900
H779        H  0.45386108  0.68250242  0.79573658     0.30800
H780        H  0.51155849  0.73206084  0.81922891     0.32500
H781        H  0.56971232  0.76051924  0.75932915     0.31500
H782        H  0.49330092  0.60826008  0.78373561     0.35500
H783        H  0.54441494  0.62923866  0.78846595     0.28200
H784        H  0.45937397  0.69249306  0.62367476     0.32400
H785        H  0.57466474  0.77043667  0.66807699     0.35300
H786        H  0.46143322  0.66515402  0.81441245     0.27900
H787        H  0.56439348  0.64874720  0.80974934     0.40700
H788        H  0.52713522  0.62382454  0.64158368     0.30800
H789        H  0.46119749  0.60424774  0.68058507     0.38400
H790        H  0.54867329  0.76108581  0.73913947     0.30300
H791        H  0.56197847  0.69269860  0.61584840     0.30300
H792        H  0.48418204  0.71586459  0.62102273     0.30600
Zr793      Zr  0.21588128  0.01994021  0.88277993     2.17500
O794        O  0.24433695  0.04098764  0.83584380    -0.51800
O795        O  0.22290420  0.98710833  0.87417116    -0.75000
O796        O  0.25719290  0.04311659  0.90368477    -0.81700
O797        O  0.16210763  0.00349618  0.82305481    -0.83500
O798        O  0.25525638  0.04492691  0.96142972    -0.79100
O799        O  0.20239453  0.01980309  0.82301682    -0.90700
O800        O  0.20071784  0.95654135  0.91228831    -0.76700
O801        O  0.21454147  0.00455506  0.94049992    -0.86200
O802        O  0.17902440  0.98370897  0.88957615    -0.85900
O803        O  0.21866570  0.04976127  0.91863662    -0.72600
O804        O  0.18446702  0.02924912  0.87291529    -0.84800
Zr805      Zr  0.14907477  0.00933531  0.97344246     2.26400
Zr806      Zr  0.21511647  0.03325665  0.97643865     2.06300
Zr807      Zr  0.14758091  0.99297484  0.88168118     2.10000
Zr808      Zr  0.17801570  0.96869866  0.94702758     1.78800
O809        O  0.12097538  0.00061074  0.84419560    -0.93600
O810        O  0.20255744  0.96194032  0.98993059    -0.41400
O811        O  0.14628300  0.97818243  0.93985174    -0.78000
O812        O  0.17863485  0.99702527  0.98407693    -0.96700
O813        O  0.18566156  0.04507881  0.96640748    -0.90000
O814        O  0.15033971  0.02323804  0.91498912    -0.92900
C815        C  0.21538184  0.96584092  0.88673801     1.00900
C816        C  0.18234474  0.01294289  0.80755854     1.13800
C817        C  0.26678194  0.04879777  0.93340985     1.04600
O818        O  0.23613600  0.02414316  0.02248340    -0.95000
O819        O  0.20169743  0.03016593  0.03471740    -0.90800
O820        O  0.16167422  0.01470976  0.03354143    -0.83900
C821        C  0.18151758  0.02253010  0.04957550     1.11200
O822        O  0.22002718  0.09178368  0.87523565    -0.97000
Zr823      Zr  0.18738054  0.05901481  0.90784182     1.88900
O824        O  0.13270834  0.03689461  0.96384853    -0.73600
O825        O  0.23487143  0.07501455  0.98709007    -0.52900
O826        O  0.20616822  0.09558343  0.93705539    -0.97600
O827        O  0.17304651  0.06736316  0.85306540    -0.54800
O828        O  0.15640361  0.06649027  0.92495592    -0.74200
C829        C  0.13775583  0.05555247  0.94399338     0.98200
O830        O  0.12235299  0.99840942  0.02287946    -0.63000
O831        O  0.13169828  0.95352985  0.86144912    -0.57800
O832        O  0.11017382  0.97744656  0.96228990    -0.94500
O833        O  0.10677747  0.97436332  0.90478472    -0.92900
O834        O  0.15031286  0.93159122  0.92296754    -0.93200
O835        O  0.15383313  0.93799952  0.99077298    -0.92000
C836        C  0.09786617  0.96974596  0.93535066     1.17000
H837        H  0.17754123  0.97271846  0.87308405     0.33000
H838        H  0.17713577  0.99010376  0.00722009     0.43800
H839        H  0.13676589  0.02491337  0.90791163     0.37400
H840        H  0.23370389  0.06410005  0.91518299     0.33800
H841        H  0.20245021  0.94743240  0.98353933     0.25600
H842        H  0.22723756  0.07578824  0.00829581     0.31600
H843        H  0.19949408  0.09116507  0.96069331     0.37500
H844        H  0.15671241  0.92075696  0.92935309     0.31900
H845        H  0.11425160  0.94619584  0.86447112     0.30800
H846        H  0.11271640  0.98644209  0.83087352     0.32500
H847        H  0.15631026  0.05464611  0.85210883     0.31500
H848        H  0.14202757  0.94246849  0.99799888     0.35500
H849        H  0.10866871  0.00022396  0.01446435     0.28200
H850        H  0.25633251  0.03564459  0.83825926     0.32400
H851        H  0.21449235  0.10335174  0.86916480     0.35300
H852        H  0.13428278  0.95612257  0.83626324     0.27900
H853        H  0.11582375  0.98118429  0.02779372     0.40700
H854        H  0.22752813  0.00669436  0.02583690     0.30800
H855        H  0.21901051  0.97467853  0.98475075     0.38400
H856        H  0.18138975  0.06383082  0.83536649     0.30300
H857        H  0.25115270  0.07879485  0.99411237     0.30300
H858        H  0.25282151  0.05774445  0.84138996     0.30600
Zr859      Zr  0.21354708  0.01398056  0.38644418     2.17500
O860        O  0.24358599  0.03888386  0.34301034    -0.51800
O861        O  0.22199812  0.98198171  0.37992646    -0.75000
O862        O  0.25394176  0.03441945  0.41093720    -0.81700
O863        O  0.16261766  0.99535733  0.32269208    -0.83500
O864        O  0.24972624  0.03807085  0.46750697    -0.79100
O865        O  0.20291784  0.01175926  0.32539994    -0.90700
O866        O  0.19865743  0.95121535  0.41716538    -0.76700
O867        O  0.21067608  0.99944456  0.44486836    -0.86200
O868        O  0.17705635  0.97725110  0.39197004    -0.85900
O869        O  0.21420715  0.04385579  0.42008642    -0.72600
O870        O  0.18194161  0.02252658  0.37261834    -0.84800
Zr871      Zr  0.14346454  0.00231354  0.47091101     2.26400
Zr872      Zr  0.20952120  0.02818442  0.47860327     2.06300
Zr873      Zr  0.14544748  0.98585727  0.37994102     2.10000
Zr874      Zr  0.17479559  0.96303540  0.45029261     1.78800
O875        O  0.12055699  0.99556823  0.34169369    -0.93600
O876        O  0.19954755  0.95603262  0.49250483    -0.41400
O877        O  0.14306668  0.97180869  0.43865746    -0.78000
O878        O  0.17352114  0.99132635  0.48596344    -0.96700
O879        O  0.17946964  0.03874238  0.46487973    -0.90000
O880        O  0.14590808  0.01570626  0.41198686    -0.92900
C881        C  0.21443755  0.96082209  0.39299538     1.00900
C882        C  0.18336575  0.00482257  0.30869252     1.13800
C883        C  0.26220955  0.04013440  0.44128777     1.04600
O884        O  0.22716412  0.01706165  0.52731121    -0.95000
O885        O  0.19476844  0.02893247  0.53444876    -0.90800
O886        O  0.15465235  0.01042620  0.53112030    -0.83900
C887        C  0.17407124  0.02053581  0.54806422     1.11200
O888        O  0.21435675  0.08382400  0.37085226    -0.97000
Zr889      Zr  0.18244762  0.05205389  0.40585027     1.88900
O890        O  0.12745498  0.02985962  0.46141906    -0.73600
O891        O  0.23153269  0.07004212  0.48871243    -0.52900
O892        O  0.20103876  0.08837354  0.43570849    -0.97600
O893        O  0.16849748  0.06069790  0.35097121    -0.54800
O894        O  0.14998971  0.05828311  0.42033642    -0.74200
C895        C  0.13195312  0.04788083  0.44061790     0.98200
O896        O  0.10931924  0.98615791  0.51003500    -0.63000
O897        O  0.12966301  0.94716025  0.35729622    -0.57800
O898        O  0.10575368  0.96912404  0.45809150    -0.94500
O899        O  0.10402086  0.96492980  0.40071683    -0.92900
O900        O  0.14488863  0.92540062  0.43009353    -0.93200
O901        O  0.15202468  0.93357668  0.49626546    -0.92000
C902        C  0.09445024  0.96021322  0.43086152     1.17000
H903        H  0.17627203  0.96617354  0.37612105     0.33000
H904        H  0.17160575  0.98502430  0.50954318     0.43800
H905        H  0.13221813  0.01701923  0.40436783     0.37400
H906        H  0.22924628  0.05820057  0.41674373     0.33800
H907        H  0.19690622  0.94005269  0.48862569     0.25600
H908        H  0.24138907  0.07086395  0.50896616     0.31600
H909        H  0.18897055  0.08667718  0.45255708     0.37500
H910        H  0.15152787  0.91460787  0.43490041     0.31900
H911        H  0.12265500  0.93582013  0.37751678     0.30800
H912        H  0.11497813  0.98369161  0.32430898     0.32500
H913        H  0.16399933  0.07282707  0.35535029     0.31500
H914        H  0.13939312  0.93725323  0.50221381     0.35500
H915        H  0.11177299  0.97581160  0.52760280     0.28200
H916        H  0.25589729  0.03393139  0.34474648     0.32400
H917        H  0.21010226  0.09656027  0.36784126     0.35300
H918        H  0.11577303  0.94524944  0.34359593     0.27900
H919        H  0.11082881  0.99963564  0.52224648     0.40700
H920        H  0.22735785  0.00273077  0.52077141     0.30800
H921        H  0.21609670  0.96675172  0.48447295     0.38400
H922        H  0.15318864  0.04630903  0.34735462     0.30300
H923        H  0.24310802  0.07753145  0.46943918     0.30300
H924        H  0.25131161  0.05497069  0.35130698     0.30600
Zr925      Zr  0.01120799  0.21403622  0.97213255     2.17500
O926        O  0.03762189  0.24182943  0.01257585    -0.51800
O927        O  0.97990434  0.22230276  0.98782572    -0.75000
O928        O  0.03246510  0.25507457  0.94655773    -0.81700
O929        O  0.99654744  0.16160231  0.03793342    -0.83500
O930        O  0.03102364  0.25347205  0.88847243    -0.79100
O931        O  0.01158550  0.20136531  0.03254475    -0.90700
O932        O  0.94659542  0.19878936  0.95911891    -0.76700
O933        O  0.99104315  0.21187982  0.91941133    -0.86200
O934        O  0.97529229  0.17680733  0.97570890    -0.85900
O935        O  0.03826139  0.21734588  0.92796965    -0.72600
O936        O  0.02283604  0.18415189  0.98038818    -0.84800
Zr937      Zr  0.99526949  0.14798299  0.88577188     2.26400
Zr938      Zr  0.01706504  0.21338329  0.87538552     2.06300
Zr939      Zr  0.98670479  0.14685822  0.98154584     2.10000
Zr940      Zr  0.95562293  0.17483313  0.92286340     1.78800
O941        O  0.00065892  0.12453592  0.01881638    -0.93600
O942        O  0.94303593  0.19689736  0.88256027    -0.41400
O943        O  0.96686335  0.14437943  0.92835361    -0.78000
O944        O  0.98134276  0.17633625  0.87777971    -0.96700
O945        O  0.03065990  0.18514945  0.88274393    -0.90000
O946        O  0.01430056  0.15030637  0.93940627    -0.92900
C947        C  0.95793807  0.21462615  0.98056811     1.00900
C948        C  0.00550535  0.18183784  0.05050319     1.13800
C949        C  0.03659844  0.26476582  0.91567038     1.04600
O950        O  0.99428947  0.22650356  0.83821961    -0.95000
O951        O  0.01686977  0.19955910  0.81924496    -0.90800
O952        O  0.00454539  0.16029626  0.82506248    -0.83900
C953        C  0.01186857  0.17992211  0.80687784     1.11200
O954        O  0.08310744  0.21927565  0.96398714    -0.97000
Zr955      Zr  0.04964411  0.18753148  0.93648658     1.88900
O956        O  0.02447866  0.13402621  0.88379226    -0.73600
O957        O  0.05483602  0.24098049  0.84720502    -0.52900
O958        O  0.08540632  0.20981080  0.90104064    -0.97600
O959        O  0.06254141  0.17188723  0.98606260    -0.54800
O960        O  0.05768535  0.15931035  0.91160288    -0.74200
C961        C  0.04556816  0.14073069  0.89539071     0.98200
O962        O  0.96801325  0.12283458  0.84337403    -0.63000
O963        O  0.94732326  0.12694337  0.00827734    -0.57800
O964        O  0.97451703  0.10717738  0.90746763    -0.94500
O965        O  0.97148120  0.10633017  0.96536140    -0.92900
O966        O  0.91924757  0.14692535  0.95410311    -0.93200
O967        O  0.92337421  0.14876206  0.88693218    -0.92000
C968        C  0.96855197  0.09617485  0.93719462     1.17000
H969        H  0.96554872  0.17537598  0.99511876     0.33000
H970        H  0.97321612  0.17436697  0.85613866     0.43800
H971        H  0.01755840  0.13744228  0.94476318     0.37400
H972        H  0.05256757  0.23249458  0.92742955     0.33800
H973        H  0.92918270  0.19636573  0.89390943     0.25600
H974        H  0.06282420  0.23153312  0.84408526     0.31600
H975        H  0.07966259  0.20855973  0.87714870     0.37500
H976        H  0.92136870  0.15241340  0.97757006     0.31900
H977        H  0.93667407  0.11706022  0.99044697     0.30800
H978        H  0.98767669  0.11544364  0.03587753     0.32500
H979        H  0.07528626  0.16933419  0.97707382     0.31500
H980        H  0.92743956  0.13644360  0.88181259     0.35500
H981        H  0.97271333  0.11068122  0.84019896     0.28200
H982        H  0.03309713  0.25435800  0.01258656     0.32400
H983        H  0.07578273  0.22568864  0.97897883     0.35300
H984        H  0.94789192  0.11548574  0.02587920     0.27900
H985        H  0.95226346  0.11419275  0.85499672     0.40700
H986        H  0.00643332  0.24040294  0.82439164     0.30800
H987        H  0.95568781  0.21355620  0.88313935     0.38400
H988        H  0.04913495  0.15578749  0.99136748     0.30300
H989        H  0.05063115  0.24433504  0.82369572     0.30300
H990        H  0.05364615  0.24953737  0.00178946     0.30600
Zr991      Zr  0.01100443  0.21487946  0.47041729     2.17500
O992        O  0.03666223  0.24430253  0.50959852    -0.51800
O993        O  0.97857217  0.22202580  0.48550853    -0.75000
O994        O  0.03236192  0.25558216  0.44267375    -0.81700
O995        O  0.99730667  0.16374657  0.53824910    -0.83500
O996        O  0.03367161  0.25287775  0.38512284    -0.79100
O997        O  0.01286030  0.20365482  0.53099542    -0.90700
O998        O  0.94617409  0.19925887  0.45449904    -0.76700
O999        O  0.99274090  0.21237563  0.41600629    -0.86200
O1000       O  0.97466159  0.17795722  0.47379745    -0.85900
O1001       O  0.03914423  0.21642983  0.42953405    -0.72600
O1002       O  0.02121033  0.18403157  0.48109670    -0.84800
Zr1003     Zr  0.99489713  0.14636220  0.38835566     2.26400
Zr1004     Zr  0.02000762  0.21236510  0.37524268     2.06300
Zr1005     Zr  0.98473831  0.14703387  0.48311895     2.10000
Zr1006     Zr  0.95658724  0.17586525  0.41947307     1.78800
O1007       O  0.99897842  0.12478400  0.51990666    -0.93600
O1008       O  0.94529276  0.19862212  0.37835071    -0.41400
O1009       O  0.96627966  0.14451069  0.42870837    -0.78000
O1010       O  0.98327476  0.17619332  0.37706575    -0.96700
O1011       O  0.03136962  0.18259312  0.38518754    -0.90000
O1012       O  0.01259456  0.14886902  0.44303429    -0.92900
C1013       C  0.95676727  0.21445399  0.47700776     1.00900
C1014       C  0.00705876  0.18442542  0.54961794     1.13800
C1015       C  0.03773258  0.26474962  0.41151900     1.04600
O1016       O  0.00437868  0.22930955  0.33108429    -0.95000
O1017       O  0.01852092  0.19728453  0.31989447    -0.90800
O1018       O  0.00517105  0.15784070  0.32778631    -0.83900
C1019       C  0.01268429  0.17712308  0.30869518     1.11200
O1020       O  0.08280904  0.21500795  0.46965284    -0.97000
Zr1021     Zr  0.04878264  0.18533427  0.44012098     1.88900
O1022       O  0.02274992  0.13094386  0.38701137    -0.73600
O1023       O  0.06087751  0.23584460  0.35427753    -0.52900
O1024       O  0.08308064  0.20778362  0.40200948    -0.97600
O1025       O  0.06242201  0.17077366  0.49007823    -0.54800
O1026       O  0.05470804  0.15457672  0.41851603    -0.74200
C1027       C  0.04297411  0.13654560  0.40093444     0.98200
O1028       O  0.96343015  0.11926635  0.35211176    -0.63000
O1029       O  0.94622740  0.12888400  0.51239033    -0.57800
O1030       O  0.97546557  0.10598803  0.41172686    -0.94500
O1031       O  0.96703603  0.10555377  0.46790583    -0.92900
O1032       O  0.92056939  0.14739205  0.45084683    -0.93200
O1033       O  0.92541668  0.15181604  0.38038296    -0.92000
C1034       C  0.96648859  0.09506345  0.44077031     1.17000
H1035       H  0.96449160  0.17689618  0.49238220     0.33000
H1036       H  0.97586567  0.17436565  0.35486801     0.43800
H1037       H  0.01517535  0.13566511  0.44928946     0.37400
H1038       H  0.05365228  0.23139636  0.42943703     0.33800
H1039       H  0.92945103  0.19542453  0.38633344     0.25600
H1040       H  0.06517193  0.22420063  0.34664767     0.31600
H1041       H  0.09275561  0.19977758  0.40551929     0.37500
H1042       H  0.91804033  0.13173341  0.44523243     0.31900
H1043       H  0.94328811  0.11293284  0.52073591     0.30800
H1044       H  0.98550684  0.11459829  0.53573802     0.32500
H1045       H  0.07557232  0.16875548  0.48132592     0.31500
H1046       H  0.93286682  0.14534548  0.36573941     0.35500
H1047       H  0.94913715  0.11097058  0.36718522     0.28200
H1048       H  0.03155773  0.25644171  0.50840650     0.32400
H1049       H  0.07678754  0.22459328  0.47994130     0.35300
H1050       H  0.94912100  0.13743268  0.53347704     0.27900
H1051       H  0.95973079  0.12952527  0.33612123     0.40700
H1052       H  0.98708016  0.22136427  0.33594856     0.30800
H1053       H  0.95601859  0.21532691  0.38297600     0.38400
H1054       H  0.04939920  0.15447531  0.49545288     0.30300
H1055       H  0.05973088  0.24424467  0.33274812     0.30300
H1056       H  0.05272861  0.25221534  0.49889292     0.30600
Zr1057     Zr  0.86429031  0.86754446  0.98293909     2.17500
O1058       O  0.86653058  0.89718111  0.01996123    -0.51800
O1059       O  0.90721186  0.88113956  0.98648249    -0.75000
O1060       O  0.86175625  0.85481044  0.04399342    -0.81700
O1061       O  0.87567946  0.90880227  0.90386210    -0.83500
O1062       O  0.83659180  0.81540528  0.04949593    -0.79100
O1063       O  0.88076309  0.90804125  0.96156984    -0.90700
O1064       O  0.91467921  0.85725654  0.95537489    -0.76700
O1065       O  0.86393539  0.83079836  0.98496605    -0.86200
O1066       O  0.87884480  0.86585464  0.92833728    -0.85900
O1067       O  0.82294006  0.83889005  0.99216727    -0.72600
O1068       O  0.83723342  0.87021096  0.94122586    -0.84800
Zr1069     Zr  0.81127548  0.80082794  0.89778465     2.26400
Zr1070     Zr  0.82288645  0.80209612  0.99332152     2.06300
Zr1071     Zr  0.85218326  0.86812047  0.88701305     2.10000
Zr1072     Zr  0.87824468  0.82899893  0.93025504     1.78800
O1073       O  0.83140634  0.88745708  0.85917144    -0.93600
O1074       O  0.89103038  0.80471815  0.96522777    -0.41400
O1075       O  0.85191527  0.83103326  0.88784009    -0.78000
O1076       O  0.83806224  0.79859591  0.93998322    -0.96700
O1077       O  0.79570354  0.80291753  0.95122776    -0.90000
O1078       O  0.81155989  0.83783193  0.89448609    -0.92900
C1079       C  0.92137051  0.87481497  0.97388665     1.00900
C1080       C  0.88367564  0.91900092  0.93200992     1.13800
C1081       C  0.85027280  0.83515687  0.06211816     1.04600
O1082       O  0.83477255  0.77703886  0.02805459    -0.95000
O1083       O  0.80141313  0.76167237  0.97945573    -0.90800
O1084       O  0.79261559  0.75989275  0.92266939    -0.83900
C1085       C  0.79209630  0.75027827  0.95286666     1.11200
O1086       O  0.79027732  0.86581654  0.98374309    -0.97000
Zr1087     Zr  0.79632214  0.83981422  0.94817627     1.88900
O1088       O  0.77133812  0.79320767  0.88253231    -0.73600
O1089       O  0.78624015  0.78686725  0.02670881    -0.52900
O1090       O  0.76524088  0.81732570  0.99130678    -0.97600
O1091       O  0.78706280  0.86769717  0.91550914    -0.54800
O1092       O  0.76158400  0.81529909  0.91377593    -0.74200
C1093       C  0.75669192  0.80002640  0.89137002     0.98200
O1094       O  0.80490943  0.76768285  0.86519122    -0.63000
O1095       O  0.88631530  0.89005681  0.84822547    -0.57800
O1096       O  0.82252382  0.81266065  0.83739333    -0.94500
O1097       O  0.84549270  0.85250285  0.83092457    -0.92900
O1098       O  0.90728826  0.84702190  0.88345620    -0.93200
O1099       O  0.88119740  0.80080350  0.89575427    -0.92000
C1100       C  0.83460782  0.83202058  0.81889433     1.17000
H1101       H  0.89454969  0.87891892  0.92321808     0.33000
H1102       H  0.83795352  0.78370033  0.93987060     0.43800
H1103       H  0.80225439  0.83903865  0.87547388     0.37400
H1104       H  0.81761778  0.84074509  0.01406802     0.33800
H1105       H  0.90835243  0.81215611  0.96073832     0.25600
H1106       H  0.78474496  0.77256860  0.03978287     0.31600
H1107       H  0.75039440  0.81529609  0.98035113     0.37500
H1108       H  0.90085219  0.85508866  0.86766827     0.31900
H1109       H  0.88486596  0.90377755  0.83845412     0.30800
H1110       H  0.84364286  0.90071379  0.84450245     0.32500
H1111       H  0.78368634  0.86226747  0.89196885     0.31500
H1112       H  0.87135795  0.79979598  0.87539244     0.35500
H1113       H  0.79384966  0.76692102  0.84665431     0.28200
H1114       H  0.88044532  0.90092713  0.03478539     0.32400
H1115       H  0.77343248  0.86178128  0.98069064     0.35300
H1116       H  0.90038030  0.89692176  0.86320774     0.27900
H1117       H  0.82024541  0.77257051  0.85348932     0.40700
H1118       H  0.84547267  0.77476806  0.01288444     0.30800
H1119       H  0.88975907  0.80799603  0.98922040     0.38400
H1120       H  0.80237259  0.88261958  0.91331527     0.30300
H1121       H  0.78982561  0.79834050  0.04428899     0.30300
H1122       H  0.85246467  0.88899335  0.03545809     0.30600
Zr1123     Zr  0.86230923  0.86469780  0.48149582     2.17500
O1124       O  0.87037688  0.89630803  0.51869730    -0.51800
O1125       O  0.90470198  0.87598726  0.48507252    -0.75000
O1126       O  0.85592385  0.85228641  0.54268913    -0.81700
O1127       O  0.87416539  0.90643350  0.40202708    -0.83500
O1128       O  0.83060916  0.81283748  0.54925877    -0.79100
O1129       O  0.87778709  0.90521583  0.45988425    -0.90700
O1130       O  0.91024492  0.84934386  0.45796570    -0.76700
O1131       O  0.85941683  0.82672658  0.48555523    -0.86200
O1132       O  0.87704501  0.86122247  0.42818596    -0.85900
O1133       O  0.82037898  0.83784682  0.48976273    -0.72600
O1134       O  0.83685710  0.86893018  0.43852623    -0.84800
Zr1135     Zr  0.80781931  0.79847238  0.39643645     2.26400
Zr1136     Zr  0.81771377  0.79981097  0.49260358     2.06300
Zr1137     Zr  0.85212753  0.86536847  0.38562017     2.10000
Zr1138     Zr  0.87353162  0.82290690  0.43191951     1.78800
O1139       O  0.83475319  0.88590276  0.35162798    -0.93600
O1140       O  0.88176904  0.79631975  0.46972545    -0.41400
O1141       O  0.84914306  0.82698409  0.38809681    -0.78000
O1142       O  0.83251800  0.79420046  0.44028467    -0.96700
O1143       O  0.79234642  0.80228229  0.44872461    -0.90000
O1144       O  0.81077599  0.83671837  0.39196365    -0.92900
C1145       C  0.91798650  0.86810018  0.47405982     1.00900
C1146       C  0.88113354  0.91653548  0.43049013     1.13800
C1147       C  0.84389420  0.83294153  0.56119034     1.04600
O1148       O  0.82877172  0.77249726  0.52264449    -0.95000
O1149       O  0.79043796  0.75989454  0.48100926    -0.90800
O1150       O  0.78783632  0.75765592  0.42312085    -0.83900
C1151       C  0.78307770  0.74833175  0.45418772     1.11200
O1152       O  0.79147184  0.86735872  0.48042397    -0.97000
Zr1153     Zr  0.79533724  0.84022267  0.44454720     1.88900
O1154       O  0.76857911  0.79260969  0.38138116    -0.73600
O1155       O  0.78212214  0.78754835  0.52733196    -0.52900
O1156       O  0.76245574  0.81925873  0.48551966    -0.97600
O1157       O  0.78845321  0.86917560  0.41025478    -0.54800
O1158       O  0.76036641  0.81680812  0.41032675    -0.74200
C1159       C  0.75485167  0.80076267  0.38908399     0.98200
O1160       O  0.80062725  0.76894068  0.35584303    -0.63000
O1161       O  0.88897685  0.88491573  0.35181367    -0.57800
O1162       O  0.82002817  0.80968717  0.33634072    -0.94500
O1163       O  0.84575622  0.84920222  0.33025848    -0.92900
O1164       O  0.90422832  0.83820993  0.38721066    -0.93200
O1165       O  0.87593296  0.79416311  0.39794020    -0.92000
C1166       C  0.83371455  0.82881986  0.31832399     1.17000
H1167       H  0.89312144  0.87357682  0.42321819     0.33000
H1168       H  0.83111273  0.77869625  0.44104175     0.43800
H1169       H  0.80208043  0.83834995  0.37242609     0.37400
H1170       H  0.81502505  0.84038717  0.51113622     0.33800
H1171       H  0.88738695  0.80440565  0.49128391     0.25600
H1172       H  0.78216098  0.77593040  0.54514453     0.31600
H1173       H  0.75546078  0.80239676  0.48091616     0.37500
H1174       H  0.91382303  0.85534928  0.39014681     0.31900
H1175       H  0.88688427  0.89583290  0.33488294     0.30800
H1176       H  0.84710930  0.89604419  0.33421304     0.32500
H1177       H  0.77105983  0.86300822  0.41165915     0.31500
H1178       H  0.85930197  0.78339266  0.39159121     0.35500
H1179       H  0.80765033  0.75939765  0.36615012     0.28200
H1180       H  0.88131562  0.89590901  0.53667087     0.32400
H1181       H  0.77524774  0.86502269  0.47640238     0.35300
H1182       H  0.90141961  0.89539389  0.36737647     0.27900
H1183       H  0.78322249  0.75816783  0.35649798     0.40700
H1184       H  0.81671421  0.76438716  0.54123368     0.30800
H1185       H  0.86596526  0.78267426  0.47576889     0.38400
H1186       H  0.79137631  0.86741858  0.38616875     0.30300
H1187       H  0.78532308  0.80143445  0.53997559     0.30300
H1188       H  0.85518178  0.89151279  0.53073519     0.30600
C1189       C  0.83661771  0.83098169  0.78117609    -0.20300
C1190       C  0.82093538  0.81103039  0.76326880     0.35900
C1191       C  0.82340215  0.81170537  0.72744697    -0.26300
C1192       C  0.84130669  0.83162715  0.70914261     0.02400
C1193       C  0.85748085  0.85109864  0.72698719     0.27200
C1194       C  0.85485030  0.85067715  0.76261714    -0.25400
N1195       N  0.80241350  0.79027350  0.78117543    -0.82800
H1196       H  0.81100444  0.79675855  0.71357494     0.13000
C1197       C  0.84270824  0.83212484  0.67118323     0.02300
N1198       N  0.87664878  0.87117042  0.70880778    -0.81300
H1199       H  0.86736049  0.86584743  0.77596685     0.17800
C1200       C  0.84151094  0.85029198  0.65104468    -0.26200
C1201       C  0.84246631  0.85128270  0.61504199     0.35800
C1202       C  0.84466048  0.83369599  0.59889534    -0.20200
C1203       C  0.84579516  0.81550500  0.61903669    -0.25500
C1204       C  0.84509515  0.81467227  0.65504294     0.27200
H1205       H  0.83937431  0.86350631  0.66352500     0.13000
N1206       N  0.84041621  0.86959226  0.59488798    -0.82700
H1207       H  0.84737414  0.80196564  0.60657149     0.17800
N1208       N  0.84695669  0.79629522  0.67529931    -0.81300
H1209       H  0.83903895  0.88116845  0.61073608     0.33500
H1210       H  0.82450512  0.86159198  0.58136657     0.37900
H1211       H  0.84854805  0.78482410  0.65948389     0.33400
H1212       H  0.86271221  0.80427200  0.68917002     0.30100
H1213       H  0.88701153  0.88405083  0.72564640     0.33400
H1214       H  0.88770568  0.86548730  0.69864227     0.30100
H1215       H  0.79013812  0.79474117  0.79040852     0.38000
H1216       H  0.79318166  0.77697279  0.76438825     0.33500
C1217       C  0.85167613  0.83472636  0.10022952    -0.20300
C1218       C  0.85651824  0.85459450  0.11843817     0.35900
C1219       C  0.85336779  0.85190427  0.15421774    -0.26300
C1220       C  0.84628856  0.83009479  0.17242363     0.02400
C1221       C  0.84245565  0.81049268  0.15472274     0.27200
C1222       C  0.84511599  0.81297726  0.11885090    -0.25400
N1223       N  0.86392040  0.87726144  0.10071469    -0.82800
H1224       H  0.85635720  0.86693188  0.16810839     0.13000
C1225       C  0.84338978  0.82839617  0.21015055     0.02300
N1226       N  0.83571601  0.78815374  0.17321662    -0.81300
H1227       H  0.84166004  0.79767589  0.10531186     0.17800
C1228       C  0.82114138  0.81294592  0.22549715    -0.26200
C1229       C  0.81745766  0.81244080  0.26096923     0.35800
C1230       C  0.83653225  0.82759697  0.28126653    -0.20200
C1231       C  0.85886712  0.84261111  0.26585222    -0.25500
C1232       C  0.86251580  0.84308143  0.23057081     0.27200
H1233       H  0.80646228  0.80182440  0.20956124     0.13000
N1234       N  0.79433884  0.79723615  0.27615192    -0.82700
H1235       H  0.87360264  0.85404121  0.28146429     0.17800
N1236       N  0.88553720  0.85851594  0.21524912    -0.81300
H1237       H  0.78234205  0.78721552  0.25766561     0.33500
H1238       H  0.78802186  0.80797621  0.28505363     0.37900
H1239       H  0.89767014  0.86829647  0.23376890     0.33400
H1240       H  0.89176769  0.84793921  0.20552259     0.30100
H1241       H  0.83340791  0.77545376  0.15633981     0.33400
H1242       H  0.84982541  0.79032995  0.18914912     0.30100
H1243       H  0.88129252  0.88348887  0.09184921     0.38000
H1244       H  0.86487561  0.88942132  0.11765398     0.33500
C1245       C  0.95491049  0.06865180  0.44174751    -0.20300
C1246       C  0.93628989  0.05343444  0.46496093     0.35900
C1247       C  0.92479542  0.02879011  0.46190283    -0.26300
C1248       C  0.93153778  0.01892112  0.43642579     0.02400
C1249       C  0.95037597  0.03393701  0.41378309     0.27200
C1250       C  0.96175932  0.05848432  0.41661267    -0.25400
N1251       N  0.92847345  0.06292520  0.49071529    -0.82800
H1252       H  0.91033174  0.01714662  0.47936370     0.13000
C1253       C  0.91908576  0.99278205  0.43430602     0.02300
N1254       N  0.95790059  0.02418117  0.38799901    -0.81300
H1255       H  0.97609947  0.06978172  0.39877941     0.17800
C1256       C  0.90629170  0.98265572  0.40479153    -0.26200
C1257       C  0.89387784  0.95792614  0.40246495     0.35800
C1258       C  0.89419509  0.94293698  0.43042343    -0.20200
C1259       C  0.90746523  0.95336399  0.45964801    -0.25500
C1260       C  0.92009644  0.97797636  0.46163269     0.27200
H1261       H  0.90575514  0.99412815  0.38364887     0.13000
N1262       N  0.88086295  0.94813879  0.37199025    -0.82700
H1263       H  0.90839345  0.94228573  0.48104983     0.17800
N1264       N  0.93433875  0.98806940  0.49109761    -0.81300
H1265       H  0.88308946  0.96156322  0.35354679     0.33500
H1266       H  0.86278870  0.93895200  0.37861852     0.37900
H1267       H  0.93323322  0.97481328  0.50902374     0.33400
H1268       H  0.95208574  0.99763552  0.48280337     0.30100
H1269       H  0.97189262  0.03759840  0.37318350     0.33400
H1270       H  0.96462737  0.01398260  0.40062760     0.30100
H1271       H  0.94195991  0.06976930  0.50883875     0.38000
H1272       H  0.91353871  0.04948492  0.50390803     0.33500
C1273       C  0.01223944  0.18593943  0.58675637    -0.20300
C1274       C  0.00935450  0.20181157  0.60615984     0.35900
C1275       C  0.01271200  0.20141883  0.64174530    -0.26300
C1276       C  0.01904573  0.18548436  0.65849393     0.02400
C1277       C  0.02301899  0.17028088  0.63898067     0.27200
C1278       C  0.01937071  0.17051670  0.60334103    -0.25400
N1279       N  0.00170771  0.21744912  0.59021747    -0.82800
H1280       H  0.00938981  0.21299482  0.65657660     0.13000
C1281       C  0.01940529  0.18367476  0.69661899     0.02300
N1282       N  0.03055183  0.15458216  0.65549830    -0.81300
H1283       H  0.02203430  0.15855325  0.58843206     0.17800
C1284       C  0.00398756  0.16211007  0.71439753    -0.26200
C1285       C  0.00151166  0.16027972  0.75027319     0.35800
C1286       C  0.01487459  0.18035674  0.76907693    -0.20200
C1287       C  0.03083420  0.20178841  0.75117553    -0.25500
C1288       C  0.03327462  0.20363239  0.71524345     0.27200
H1289       H  0.99301860  0.14677744  0.70019936     0.13000
N1290       N  0.98455164  0.13826166  0.76714735    -0.82700
H1291       H  0.04139604  0.21728037  0.76525089     0.17800
N1292       N  0.04959046  0.22573880  0.69752279    -0.81300
H1293       H  0.96782056  0.13357203  0.75681173     0.33500
H1294       H  0.98902104  0.12541126  0.76155810     0.37900
H1295       H  0.05821936  0.23878615  0.71487263     0.33400
H1296       H  0.06272168  0.22341366  0.68602742     0.30100
H1297       H  0.03263729  0.14454259  0.63753237     0.33400
H1298       H  0.04735681  0.16498172  0.66573795     0.30100
H1299       H  0.01447583  0.23473831  0.59481922     0.38000
H1300       H  0.98585483  0.21379050  0.60229752     0.33500
C1301       C  0.01435039  0.17636969  0.27104007    -0.20300
C1302       C  0.99769984  0.15689352  0.25329881     0.35900
C1303       C  0.99812664  0.15848352  0.21725780    -0.26300
C1304       C  0.01529897  0.17867359  0.19851140     0.02400
C1305       C  0.03266283  0.19764282  0.21615101     0.27200
C1306       C  0.03175599  0.19646505  0.25216893    -0.25400
N1307       N  0.97972352  0.13600664  0.27167724    -0.82800
H1308       H  0.98468892  0.14400939  0.20363216     0.13000
C1309       C  0.01414615  0.18001773  0.16045277     0.02300
N1310       N  0.05107591  0.21801855  0.19738883    -0.81300
H1311       H  0.04471080  0.21136337  0.26561234     0.17800
C1312       C  0.01257405  0.19892005  0.14331289    -0.26200
C1313       C  0.01037319  0.20041441  0.10745519     0.35800
C1314       C  0.00925793  0.18226317  0.08825843    -0.20200
C1315       C  0.01093500  0.16337713  0.10565046    -0.25500
C1316       C  0.01352084  0.16215016  0.14139419     0.27200
H1317       H  0.01275222  0.21246697  0.15811144     0.13000
N1318       N  0.00846304  0.21987567  0.09088479    -0.82700
H1319       H  0.01033501  0.14945943  0.09128897     0.17800
N1320       N  0.01548300  0.14281783  0.15843987    -0.81300
H1321       H  0.00685555  0.23006739  0.10906546     0.33500
H1322       H  0.02457148  0.23087830  0.07799722     0.37900
H1323       H  0.01449623  0.13103967  0.14078726     0.33400
H1324       H  0.03236380  0.14976095  0.16930860     0.30100
H1325       H  0.06236161  0.23046533  0.21417115     0.33400
H1326       H  0.06144053  0.21250580  0.18474779     0.30100
H1327       H  0.98821669  0.12740920  0.28407975     0.38000
H1328       H  0.96781700  0.12421296  0.25466950     0.33500
C1329       C  0.95795139  0.07006596  0.93832815    -0.20300
C1330       C  0.94053096  0.05478772  0.96300724     0.35900
C1331       C  0.92991640  0.03021522  0.96082977    -0.26300
C1332       C  0.93653349  0.02063669  0.93493389     0.02400
C1333       C  0.95442379  0.03569060  0.91106543     0.27200
C1334       C  0.96481318  0.06023626  0.91280313    -0.25400
N1335       N  0.93292530  0.06412946  0.98926334    -0.82800
H1336       H  0.91618173  0.01840178  0.97918439     0.13000
C1337       C  0.92419973  0.99472801  0.93294838     0.02300
N1338       N  0.96187297  0.02595232  0.88516884    -0.81300
H1339       H  0.97839028  0.07177622  0.89407334     0.17800
C1340       C  0.90790947  0.98454158  0.90660909    -0.26200
C1341       C  0.89437860  0.95985961  0.90553737     0.35800
C1342       C  0.89766236  0.94516621  0.93102612    -0.20200
C1343       C  0.91449971  0.95560569  0.95690269    -0.25500
C1344       C  0.92779885  0.98020809  0.95805613     0.27200
H1345       H  0.90524399  0.99592697  0.88745985     0.13000
N1346       N  0.87687809  0.94976769  0.87936716    -0.82700
H1347       H  0.91738299  0.94452421  0.97634452     0.17800
N1348       N  0.94489341  0.99056786  0.98465337    -0.81300
H1349       H  0.87691381  0.96302075  0.86248564     0.33500
H1350       H  0.86016721  0.94103365  0.89145751     0.37900
H1351       H  0.94530887  0.97744042  0.00130962     0.33400
H1352       H  0.96169681  0.00005156  0.97293051     0.30100
H1353       H  0.97521211  0.03943530  0.86952005     0.33400
H1354       H  0.96951048  0.01654200  0.89767399     0.30100
H1355       H  0.94689532  0.07166363  0.00651653     0.38000
H1356       H  0.91867286  0.05051508  0.00342662     0.33500
C1357       C  0.06863413  0.94396653  0.43552271    -0.20300
C1358       C  0.05997613  0.92803592  0.46490754     0.35900
C1359       C  0.03554547  0.91606506  0.47253563    -0.26300
C1360       C  0.01938046  0.91928126  0.45122068     0.02400
C1361       C  0.02792151  0.93465354  0.42117429     0.27200
C1362       C  0.05250215  0.94679131  0.41358072    -0.25400
N1363       N  0.07615352  0.92441672  0.48727080    -0.82800
H1364       H  0.02909483  0.90444140  0.49568201     0.13000
C1365       C  0.99364777  0.90634147  0.46094712     0.02300
N1366       N  0.01168872  0.93816766  0.39883694    -0.81300
H1367       H  0.05919253  0.95926266  0.39131563     0.17800
C1368       C  0.98112362  0.91882371  0.46367847    -0.26200
C1369       C  0.95653959  0.90698084  0.47121236     0.35800
C1370       C  0.94428332  0.88207425  0.47650115    -0.20200
C1371       C  0.95726669  0.86987819  0.47615307    -0.25500
C1372       C  0.98161584  0.88160858  0.46794364     0.27200
H1373       H  0.99049878  0.93787524  0.45921604     0.13000
N1374       N  0.94384800  0.92003744  0.47135335    -0.82700
H1375       H  0.94800398  0.85079345  0.48019673     0.17800
N1376       N  0.99393112  0.86833745  0.46530954    -0.81300
H1377       H  0.95527801  0.93801002  0.46524951     0.33500
H1378       H  0.93780968  0.91863966  0.49646719     0.37900
H1379       H  0.98256296  0.85035655  0.47144272     0.33400
H1380       H  0.99910658  0.86998520  0.43964655     0.30100
H1381       H  0.02084960  0.95029472  0.37825267     0.33400
H1382       H  0.00044310  0.92209267  0.38839647     0.30100
H1383       H  0.08396850  0.91680582  0.47327057     0.38000
H1384       H  0.06699053  0.91232932  0.50789047     0.33500
C1385       C  0.05286482  0.12033973  0.39975134    -0.20300
C1386       C  0.07746128  0.12933052  0.39450429     0.35900
C1387       C  0.08731414  0.11438580  0.40091397    -0.26300
C1388       C  0.07318640  0.09080963  0.41320956     0.02400
C1389       C  0.04852080  0.08153408  0.41770696     0.27200
C1390       C  0.03849714  0.09637190  0.41052548    -0.25400
N1391       N  0.09241299  0.15381157  0.38368916    -0.82800
H1392       H  0.10625440  0.12129936  0.39728464     0.13000
C1393       C  0.08493716  0.07640451  0.42129264     0.02300
N1394       N  0.03399819  0.05741854  0.43063667    -0.81300
H1395       H  0.01971705  0.08962374  0.41540935     0.17800
C1396       C  0.09097055  0.07327362  0.45537973    -0.26200
C1397       C  0.10578310  0.06322359  0.46301107     0.35800
C1398       C  0.11425678  0.05601149  0.43597188    -0.20200
C1399       C  0.10714852  0.05812520  0.40219637    -0.25500
C1400       C  0.09266572  0.06832040  0.39456733     0.27200
H1401       H  0.08507737  0.07974745  0.47575449     0.13000
N1402       N  0.11311079  0.06138054  0.49760791    -0.82700
H1403       H  0.11350882  0.05232813  0.38147631     0.17800
N1404       N  0.08647159  0.07133388  0.35965769    -0.81300
H1405       H  0.10542421  0.06766860  0.51437269     0.33500
H1406       H  0.13149657  0.07252137  0.49851578     0.37900
H1407       H  0.09387907  0.06473373  0.34294743     0.33400
H1408       H  0.06801212  0.06112135  0.35776496     0.30100
H1409       H  0.01625426  0.05341962  0.43292050     0.33400
H1410       H  0.03445834  0.04660922  0.41246000     0.30100
H1411       H  0.08712884  0.15668203  0.35910293     0.38000
H1412       H  0.11013655  0.15772902  0.38155388     0.33500
C1413       C  0.17309649  0.02199459  0.58599663    -0.20300
C1414       C  0.15349547  0.00544228  0.60675632     0.35900
C1415       C  0.15540615  0.00520371  0.64278288    -0.26300
C1416       C  0.17609898  0.02160102  0.65872221     0.02400
C1417       C  0.19505684  0.03904113  0.63817731     0.27200
C1418       C  0.19345162  0.03894328  0.60220713    -0.25400
N1419       N  0.13199051  0.98844047  0.59144156    -0.82800
H1420       H  0.14076763  0.99188196  0.65857668     0.13000
C1421       C  0.17792410  0.02005707  0.69688612     0.02300
N1422       N  0.21598449  0.05666614  0.65398736    -0.81300
H1423       H  0.20842695  0.05204222  0.58672244     0.17800
C1424       C  0.19688819  0.01789750  0.71188244    -0.26200
C1425       C  0.19905787  0.01592188  0.74780102     0.35800
C1426       C  0.18192505  0.01622701  0.76936496    -0.20200
C1427       C  0.16304301  0.01857134  0.75417439    -0.25500
C1428       C  0.16086074  0.02047043  0.71832440     0.27200
H1429       H  0.20978130  0.01719030  0.69539872     0.13000
N1430       N  0.21807284  0.01272359  0.76229570    -0.82700
H1431       H  0.14985430  0.01897699  0.77038878     0.17800
N1432       N  0.14141238  0.02288371  0.70360882    -0.81300
H1433       H  0.22930460  0.01323982  0.74297686     0.33500
H1434       H  0.21033852  0.99570753  0.77431428     0.37900
H1435       H  0.13032727  0.02273616  0.72285049     0.33400
H1436       H  0.14855435  0.03944333  0.69017214     0.30100
H1437       H  0.22836796  0.06818837  0.63536139     0.33400
H1438       H  0.21091526  0.06679201  0.66762746     0.30100
H1439       H  0.12370127  0.99770275  0.58064217     0.38000
H1440       H  0.12018091  0.97636850  0.61020596     0.33500
C1441       C  0.18431006  0.00875371  0.27070653    -0.20300
C1442       C  0.16957766  0.01676942  0.25392592     0.35900
C1443       C  0.16913906  0.01870413  0.21792372    -0.26300
C1444       C  0.18347004  0.01333622  0.19821195     0.02400
C1445       C  0.19873783  0.00599508  0.21471257     0.27200
C1446       C  0.19910531  0.00385788  0.25092879    -0.25400
N1447       N  0.15537145  0.02329901  0.27359945    -0.82800
H1448       H  0.15774605  0.02469291  0.20507258     0.13000
C1449       C  0.18242130  0.01584364  0.16023277     0.02300
N1450       N  0.21354209  0.00050180  0.19457098    -0.81300
H1451       H  0.21044971  0.99778501  0.26370437     0.17800
C1452       C  0.20155754  0.03455028  0.14203683    -0.26200
C1453       C  0.20119963  0.03755052  0.10611832     0.35800
C1454       C  0.18127969  0.02159332  0.08776597    -0.20200
C1455       C  0.16180515  0.00321275  0.10622854    -0.25500
C1456       C  0.16228097  0.00006757  0.14227335     0.27200
H1457       H  0.21689679  0.04690948  0.15583074     0.13000
N1458       N  0.22109509  0.05696936  0.08842024    -0.82700
H1459       H  0.14656507  0.99071811  0.09243577     0.17800
N1460       N  0.14262269  0.98068657  0.16071556    -0.81300
H1461       H  0.22343903  0.07259933  0.09783871     0.33500
H1462       H  0.23626035  0.05549068  0.09426846     0.37900
H1463       H  0.12922970  0.97064385  0.14379029     0.33400
H1464       H  0.14874644  0.96961261  0.17208854     0.30100
H1465       H  0.22367621  0.99530529  0.21051689     0.33400
H1466       H  0.20235873  0.98595240  0.18080305     0.30100
H1467       H  0.16701562  0.03793568  0.28686526     0.38000
H1468       H  0.14551359  0.02873699  0.25745601     0.33500
C1469       C  0.07181305  0.95489695  0.94116856    -0.20300
C1470       C  0.05498279  0.95621280  0.91851772     0.35900
C1471       C  0.03070960  0.94413399  0.92806547    -0.26300
C1472       C  0.02300769  0.93106696  0.95984813     0.02400
C1473       C  0.03979854  0.92992767  0.98251122     0.27200
C1474       C  0.06387682  0.94151852  0.97276504    -0.25400
N1475       N  0.06259933  0.97064608  0.88681773    -0.82800
H1476       H  0.01769341  0.94483382  0.91062382     0.13000
C1477       C  0.99718654  0.91737954  0.96827512     0.02300
N1478       N  0.03233476  0.91736055  0.01565733    -0.81300
H1479       H  0.07667282  0.94061045  0.99046516     0.17800
C1480       C  0.98666465  0.89280357  0.97379607    -0.26200
C1481       C  0.96209152  0.87880780  0.97887466     0.35800
C1482       C  0.94744402  0.88938929  0.97807111    -0.20200
C1483       C  0.95813459  0.91416884  0.97479449    -0.25500
C1484       C  0.98295764  0.92830490  0.96996883     0.27200
H1485       H  0.99752596  0.88431371  0.97306517     0.13000
N1486       N  0.95197356  0.85369971  0.98414792    -0.82700
H1487       H  0.94702898  0.92244308  0.97407093     0.17800
N1488       N  0.99372133  0.95360124  0.96611247    -0.81300
H1489       H  0.95645575  0.84763443  0.96296674     0.33500
H1490       H  0.95978887  0.85005952  0.00583303     0.37900
H1491       H  0.98082755  0.95884394  0.96790470     0.33400
H1492       H  0.00514315  0.96034825  0.98678508     0.30100
H1493       H  0.04687299  0.91824273  0.02932943     0.33400
H1494       H  0.02558988  0.92599980  0.02956791     0.30100
H1495       H  0.06871664  0.96258174  0.87062501     0.38000
H1496       H  0.04819289  0.97100257  0.87443376     0.33500
C1497       C  0.11995721  0.06358377  0.93753224    -0.20300
C1498       C  0.10674727  0.06632280  0.96334253     0.35900
C1499       C  0.09199868  0.07629984  0.95407137    -0.26300
C1500       C  0.09011905  0.08313793  0.91955964     0.02400
C1501       C  0.10215850  0.07894537  0.89379393     0.27200
C1502       C  0.11693805  0.06937494  0.90301646    -0.25400
N1503       N  0.10926630  0.06021365  0.99869148    -0.82800
H1504       H  0.08263951  0.07954612  0.97382217     0.13000
C1505       C  0.07764075  0.09685148  0.91050725     0.02300
N1506       N  0.09967763  0.08493806  0.85831070    -0.81300
H1507       H  0.12645257  0.06661812  0.88291584     0.17800
C1508       C  0.09104670  0.12008940  0.89615443    -0.26200
C1509       C  0.08047257  0.13423117  0.88796323     0.35800
C1510       C  0.05592260  0.12492491  0.89418171    -0.20200
C1511       C  0.04226076  0.10128178  0.90691877    -0.25500
C1512       C  0.05291014  0.08712504  0.91521062     0.27200
H1513       H  0.11000367  0.12738381  0.89208262     0.13000
N1514       N  0.09464936  0.15823132  0.87427545    -0.82700
H1515       H  0.02349930  0.09428267  0.91234037     0.17800
N1516       N  0.03884465  0.06313100  0.92890828    -0.81300
H1517       H  0.11240191  0.16238854  0.87140689     0.33500
H1518       H  0.08847983  0.15953366  0.84964352     0.37900
H1519       H  0.02097905  0.05875627  0.93100641     0.33400
H1520       H  0.03958814  0.05220101  0.91118435     0.30100
H1521       H  0.10998703  0.08104724  0.84249433     0.33400
H1522       H  0.08194434  0.07417321  0.85171188     0.30100
H1523       H  0.10222529  0.04190129  0.00155875     0.38000
H1524       H  0.09899508  0.06417098  0.01447774     0.33500
C1525       C  0.62064956  0.73853558  0.78670806    -0.20300
C1526       C  0.64219955  0.75236873  0.76807976     0.35900
C1527       C  0.66409889  0.76164476  0.78558079    -0.26300
C1528       C  0.66493764  0.75808047  0.82142709     0.02400
C1529       C  0.64342630  0.74488709  0.84011647     0.27200
C1530       C  0.62163355  0.73515916  0.82263018    -0.25400
N1531       N  0.64189817  0.75630293  0.73143387    -0.82800
H1532       H  0.68062937  0.77191128  0.77125778     0.13000
C1533       C  0.68835950  0.76859756  0.83930454     0.02300
N1534       N  0.64382981  0.74119540  0.87681346    -0.81300
H1535       H  0.60523053  0.72468896  0.83718507     0.17800
C1536       C  0.69428086  0.78703553  0.86073388    -0.26200
C1537       C  0.71629620  0.79776045  0.87779142     0.35800
C1538       C  0.73280974  0.78947888  0.87407237    -0.20200
C1539       C  0.72649201  0.77067558  0.85278466    -0.25500
C1540       C  0.70460955  0.76025607  0.83544892     0.27200
H1541       H  0.68173984  0.79339745  0.86364988     0.13000
N1542       N  0.72187182  0.81719914  0.89839755    -0.82700
H1543       H  0.73865844  0.76390513  0.84959590     0.17800
N1544       N  0.69875998  0.74110609  0.81408477    -0.81300
H1545       H  0.70748539  0.82037647  0.89950101     0.33500
H1546       H  0.73569567  0.83230603  0.88593582     0.37900
H1547       H  0.71261301  0.73708560  0.81375937     0.33400
H1548       H  0.68404367  0.72614734  0.82522713     0.30100
H1549       H  0.62653749  0.73133851  0.88684399     0.33400
H1550       H  0.65221062  0.73104760  0.88221915     0.30100
H1551       H  0.63432049  0.76720269  0.72632176     0.38000
H1552       H  0.65923896  0.76570390  0.72148304     0.33500
C1553       C  0.50127035  0.67149853  0.56286608    -0.20300
C1554       C  0.49659758  0.68713447  0.54116225     0.35900
C1555       C  0.49940586  0.68779081  0.50536404    -0.26300
C1556       C  0.50623913  0.67285088  0.49080877     0.02400
C1557       C  0.50938189  0.65624660  0.51208033     0.27200
C1558       C  0.50697181  0.65578993  0.54774826    -0.25400
N1559       N  0.48971564  0.70272462  0.55531837    -0.82800
H1560       H  0.49652796  0.70020398  0.48867333     0.13000
C1561       C  0.50967292  0.67446591  0.45313121     0.02300
N1562       N  0.51516293  0.64001508  0.49730800    -0.81300
H1563       H  0.50999496  0.64325807  0.56389266     0.17800
C1564       C  0.53218803  0.68092533  0.43944464    -0.26200
C1565       C  0.53602149  0.68289194  0.40371055     0.35800
C1566       C  0.51696869  0.67864556  0.38141845    -0.20200
C1567       C  0.49438668  0.67172982  0.39539362    -0.25500
C1568       C  0.49047454  0.66920691  0.43095303     0.27200
H1569       H  0.54682216  0.68463364  0.45674253     0.13000
N1570       N  0.55913766  0.68945828  0.39011346    -0.82700
H1571       H  0.47954305  0.66784130  0.37843415     0.17800
N1572       N  0.46701100  0.66094306  0.44472609    -0.81300
H1573       H  0.57105915  0.69166338  0.40999854     0.33500
H1574       H  0.56555829  0.70590951  0.37653928     0.37900
H1575       H  0.45479268  0.65770524  0.42494396     0.33400
H1576       H  0.46183732  0.64468166  0.45830678     0.30100
H1577       H  0.51698145  0.62893865  0.51648302     0.33400
H1578       H  0.50077492  0.62916061  0.48235998     0.30100
H1579       H  0.47252721  0.69222693  0.56540729     0.38000
H1580       H  0.48845530  0.71403091  0.53595922     0.33500
C1581       C  0.51853698  0.67274112  0.88160981    -0.20300
C1582       C  0.53674789  0.67433627  0.90404054     0.35900
C1583       C  0.53245248  0.67104565  0.93986360    -0.26300
C1584       C  0.51046436  0.66640798  0.95355179     0.02400
C1585       C  0.49213890  0.66409594  0.93113870     0.27200
C1586       C  0.49634203  0.66725640  0.89560177    -0.25400
N1587       N  0.55962116  0.67992579  0.89059912    -0.82800
H1588       H  0.54650917  0.67281559  0.95724843     0.13000
C1589       C  0.50701649  0.66504615  0.99135254     0.02300
N1590       N  0.46932800  0.65868481  0.94464944    -0.81300
H1591       H  0.48208233  0.66548209  0.87863905     0.17800
C1592       C  0.50275181  0.68185771  0.00555057    -0.26200
C1593       C  0.49963099  0.68151158  0.04117719     0.35800
C1594       C  0.50150597  0.66431720  0.06339278    -0.20200
C1595       C  0.50515795  0.64708308  0.04884563    -0.25500
C1596       C  0.50752349  0.64706108  0.01307437     0.27200
H1597       H  0.50199819  0.69544725  0.98864770     0.13000
N1598       N  0.49537813  0.69907130  0.05475110    -0.82700
H1599       H  0.50630611  0.63361463  0.06550974     0.17800
N1600       N  0.51039336  0.62886371  0.99866762    -0.81300
H1601       H  0.49647718  0.71149225  0.03528253     0.33500
H1602       H  0.47774507  0.69042684  0.06350311     0.37900
H1603       H  0.51030170  0.61685993  0.01806364     0.33400
H1604       H  0.49554782  0.61940575  0.98353070     0.30100
H1605       H  0.45779434  0.65774692  0.92476724     0.33400
H1606       H  0.46188038  0.64186247  0.95733560     0.30100
H1607       H  0.56729798  0.69703308  0.87883573     0.38000
H1608       H  0.57091186  0.68028772  0.91052118     0.33500
C1609       C  0.61922494  0.73715711  0.28487270    -0.20300
C1610       C  0.63927003  0.75606272  0.26755446     0.35900
C1611       C  0.66122783  0.76745961  0.28473107    -0.26300
C1612       C  0.66390429  0.76001559  0.31848955     0.02400
C1613       C  0.64416673  0.74078476  0.33538890     0.27200
C1614       C  0.62215202  0.72985273  0.31870989    -0.25400
N1615       N  0.63753436  0.76330437  0.23244125    -0.82800
H1616       H  0.67647130  0.78205111  0.27155904     0.13000
C1617       C  0.68757894  0.77169484  0.33561113     0.02300
N1618       N  0.64667009  0.73210835  0.36930802    -0.81300
H1619       H  0.60715830  0.71529971  0.33237214     0.17800
C1620       C  0.68972341  0.78136945  0.36743285    -0.26200
C1621       C  0.71128133  0.79082221  0.38564191     0.35800
C1622       C  0.73143188  0.79113406  0.37134777    -0.20200
C1623       C  0.72925267  0.78174458  0.33924227    -0.25500
C1624       C  0.70762879  0.77192620  0.32144410     0.27200
H1625       H  0.67430215  0.78109310  0.37843305     0.13000
N1626       N  0.71250485  0.79948964  0.41887960    -0.82700
H1627       H  0.74452899  0.78191067  0.32792563     0.17800
N1628       N  0.70583830  0.76171708  0.28932846    -0.81300
H1629       H  0.69625453  0.79820046  0.42546179     0.33500
H1630       H  0.71531230  0.78840856  0.43688296     0.37900
H1631       H  0.72218483  0.76338617  0.28233512     0.33400
H1632       H  0.69395830  0.74362000  0.29297113     0.30100
H1633       H  0.63051375  0.71787483  0.37826102     0.33400
H1634       H  0.65854919  0.72558233  0.36758590     0.30100
H1635       H  0.63425571  0.74929369  0.21760246     0.38000
H1636       H  0.65376182  0.77752223  0.22367345     0.33500
C1637       C  0.40541684  0.62720290  0.69660052    -0.20300
C1638       C  0.39503353  0.64135638  0.70281897     0.35900
C1639       C  0.37050256  0.63068891  0.70981914    -0.26300
C1640       C  0.35611645  0.60610112  0.71055438     0.02400
C1641       C  0.36610370  0.59201753  0.70220909     0.27200
C1642       C  0.39072699  0.60266097  0.69590308    -0.25400
N1643       N  0.40949845  0.66643392  0.70372191    -0.82800
H1644       H  0.36271821  0.64160217  0.71526515     0.13000
C1645       C  0.33033849  0.59527894  0.71819121     0.02300
N1646       N  0.35113201  0.56704244  0.69966397    -0.81300
H1647       H  0.39859069  0.59172460  0.69102615     0.17800
C1648       C  0.31518047  0.59367505  0.69123061    -0.26200
C1649       C  0.29048316  0.58169792  0.69607013     0.35800
C1650       C  0.28034400  0.57082864  0.72896502    -0.20200
C1651       C  0.29582452  0.57361776  0.75643657    -0.25500
C1652       C  0.32073477  0.58562664  0.75131932     0.27200
H1653       H  0.32258220  0.60131715  0.66586451     0.13000
N1654       N  0.27594168  0.58045904  0.66706335    -0.82700
H1655       H  0.28851717  0.56580664  0.78174184     0.17800
N1656       N  0.33629404  0.58801829  0.77957054    -0.81300
H1657       H  0.27973917  0.57233378  0.64785932     0.33500
H1658       H  0.28062648  0.59767158  0.65773036     0.37900
H1659       H  0.32645973  0.58030767  0.80229311     0.33400
H1660       H  0.34500098  0.57849703  0.77490332     0.30100
H1661       H  0.36115237  0.55932752  0.69244747     0.33400
H1662       H  0.34407753  0.55943450  0.72403954     0.30100
H1663       H  0.40307241  0.67445932  0.68549094     0.38000
H1664       H  0.40752726  0.67118062  0.72794816     0.33500
C1665       C  0.12333184  0.40246198  0.82025716    -0.20300
C1666       C  0.11249017  0.38112144  0.80371156     0.35900
C1667       C  0.09845348  0.35965380  0.82316070    -0.26300
C1668       C  0.09486177  0.35914169  0.85865625     0.02400
C1669       C  0.10608321  0.38034534  0.87526963     0.27200
C1670       C  0.12025656  0.40172735  0.85597512    -0.25400
N1671       N  0.11490797  0.38138964  0.76716499    -0.82800
H1672       H  0.08979008  0.34326651  0.81050349     0.13000
C1673       C  0.07878547  0.33632932  0.87788895     0.02300
N1674       N  0.10245974  0.38014042  0.91149290    -0.81300
H1675       H  0.12841225  0.41807977  0.86874236     0.17800
C1676       C  0.08815438  0.32648029  0.90271495    -0.26200
C1677       C  0.07381038  0.30376193  0.91870318     0.35800
C1678       C  0.04974146  0.29071403  0.90942770    -0.20200
C1679       C  0.04008068  0.30125252  0.88629728    -0.25500
C1680       C  0.05429007  0.32404085  0.87075515     0.27200
H1681       H  0.10692535  0.33613542  0.90849019     0.13000
N1682       N  0.08398779  0.29320234  0.94224543    -0.82700
H1683       H  0.02161976  0.29113319  0.87902565     0.17800
N1684       N  0.04413077  0.33453041  0.84703060    -0.81300
H1685       H  0.10210911  0.30478515  0.94533995     0.33500
H1686       H  0.07589124  0.29066608  0.96620883     0.37900
H1687       H  0.02590438  0.32314810  0.84448503     0.33400
H1688       H  0.04581307  0.34956517  0.85766030     0.30100
H1689       H  0.11199701  0.39720817  0.91984097     0.33400
H1690       H  0.08445889  0.37463609  0.91553870     0.30100
H1691       H  0.10645851  0.39028557  0.75555102     0.38000
H1692       H  0.10595688  0.36421390  0.75909744     0.33500
C1693       C  0.16835368  0.52098354  0.57902344    -0.20300
C1694       C  0.18889618  0.52778135  0.55847219     0.35900
C1695       C  0.18691938  0.52640599  0.52294062    -0.26300
C1696       C  0.16502381  0.51866761  0.50663071     0.02400
C1697       C  0.14466851  0.51299334  0.52640302     0.27200
C1698       C  0.14651376  0.51412110  0.56228433    -0.25400
N1699       N  0.21192481  0.53512087  0.57263774    -0.82800
H1700       H  0.20263465  0.53064184  0.50799153     0.13000
C1701       C  0.16370786  0.51547023  0.46915311     0.02300
N1702       N  0.12218249  0.50588011  0.50999907    -0.81300
H1703       H  0.13063340  0.50919324  0.57726487     0.17800
C1704       C  0.14789270  0.49332316  0.45724981    -0.26200
C1705       C  0.14703666  0.48913947  0.42224701     0.35800
C1706       C  0.16296728  0.50733831  0.39872923    -0.20200
C1707       C  0.17875429  0.52950411  0.41081419    -0.25500
C1708       C  0.17909856  0.53384259  0.44556935     0.27200
H1709       H  0.13636313  0.47910636  0.47549195     0.13000
N1710       N  0.13065681  0.46626633  0.41094666    -0.82700
H1711       H  0.19077541  0.54368217  0.39291914     0.17800
N1712       N  0.19504918  0.55683416  0.45704206    -0.81300
H1713       H  0.12161185  0.45447878  0.43190562     0.33500
H1714       H  0.11770204  0.46799044  0.39637149     0.37900
H1715       H  0.20530327  0.56834155  0.43655179     0.33400
H1716       H  0.18470309  0.56370444  0.46607315     0.30100
H1717       H  0.10891502  0.50211723  0.52814971     0.33400
H1718       H  0.12383365  0.52024820  0.49406983     0.30100
H1719       H  0.21107837  0.52135711  0.58912196     0.38000
H1720       H  0.21695632  0.55021646  0.58588696     0.33500
C1721       C  0.16991832  0.51990132  0.07804065    -0.20300
C1722       C  0.19048222  0.52498808  0.05888046     0.35900
C1723       C  0.18896514  0.52309173  0.02319788    -0.26300
C1724       C  0.16756594  0.51660263  0.00604327     0.02400
C1725       C  0.14732547  0.51261399  0.02450814     0.27200
C1726       C  0.14861991  0.51408818  0.06031004    -0.25400
N1727       N  0.21267680  0.53133118  0.07558161    -0.82800
H1728       H  0.20451428  0.52634878  0.00863560     0.13000
C1729       C  0.16659978  0.51323063  0.96886578     0.02300
N1730       N  0.12555165  0.50694122  0.00680651    -0.81300
H1731       H  0.13279257  0.51044222  0.07446012     0.17800
C1732       C  0.15388119  0.49032024  0.95768618    -0.26200
C1733       C  0.15390821  0.48616968  0.92283619     0.35800
C1734       C  0.16717125  0.50541170  0.89890535    -0.20200
C1735       C  0.17984400  0.52833336  0.91026811    -0.25500
C1736       C  0.17945837  0.53246065  0.94495567     0.27200
H1737       H  0.14423266  0.47560971  0.97636785     0.13000
N1738       N  0.14148412  0.46246656  0.91205806    -0.82700
H1739       H  0.18981192  0.54314397  0.89186359     0.17800
N1740       N  0.19201482  0.55605960  0.95608085    -0.81300
H1741       H  0.13426510  0.45030332  0.93327570     0.33500
H1742       H  0.12701737  0.46080717  0.89742781     0.37900
H1743       H  0.20066280  0.56823009  0.93531037     0.33400
H1744       H  0.17937033  0.56004617  0.96528077     0.21100
H1745       H  0.11227173  0.50449072  0.02410481     0.33400
H1746       H  0.12867341  0.52156041  0.99023083     0.30100
H1747       H  0.22508696  0.53164625  0.05848620     0.38000
H1748       H  0.21943148  0.54870296  0.08226845     0.33500
C1749       C  0.40351911  0.61972235  0.19241402    -0.20300
C1750       C  0.38992173  0.59487243  0.19351409     0.35900
C1751       C  0.36545105  0.58360357  0.20082599    -0.26300
C1752       C  0.35402806  0.59664620  0.20706753     0.02400
C1753       C  0.36724623  0.62156493  0.20418704     0.27200
C1754       C  0.39190189  0.63288250  0.19693577    -0.25400
N1755       N  0.40106678  0.58097740  0.18775933    -0.82800
H1756       H  0.35539702  0.56447966  0.20242590     0.13000
C1757       C  0.32815107  0.58385182  0.21595107     0.02300
N1758       N  0.35562629  0.63521585  0.20912217    -0.81300
H1759       H  0.40227287  0.65195208  0.19664673     0.17800
C1760       C  0.32009347  0.58676142  0.24748153    -0.26200
C1761       C  0.29563130  0.57484293  0.25637996     0.35800
C1762       C  0.27893417  0.55969127  0.23317670    -0.20200
C1763       C  0.28729049  0.55647936  0.20208313    -0.25500
C1764       C  0.31151743  0.56848005  0.19312714     0.27200
H1765       H  0.33296281  0.59845216  0.26512728     0.13000
N1766       N  0.28775228  0.57891726  0.28802496    -0.82700
H1767       H  0.27471865  0.54483083  0.18411336     0.17800
N1768       N  0.31926884  0.56549644  0.16053173    -0.81300
H1769       H  0.30217527  0.59148560  0.30120236     0.33500
H1770       H  0.28083747  0.56319464  0.30360491     0.37900
H1771       H  0.30482644  0.55353467  0.14669637     0.33400
H1772       H  0.32645293  0.58175142  0.14622158     0.30100
H1773       H  0.36780135  0.65327222  0.20626334     0.33400
H1774       H  0.34321426  0.63176294  0.18956233     0.30100
H1775       H  0.39809600  0.56945184  0.20947505     0.38000
H1776       H  0.39275346  0.57082874  0.16697667     0.33500
C1777       C  0.05030323  0.29073948  0.40413004    -0.20300
C1778       C  0.04264304  0.30075052  0.37675521     0.35900
C1779       C  0.05791360  0.32382852  0.36313647    -0.26300
C1780       C  0.08089917  0.33710988  0.37583464     0.02400
C1781       C  0.08817383  0.32770911  0.40445811     0.27200
C1782       C  0.07265656  0.30462879  0.41859526    -0.25400
N1783       N  0.01969453  0.28694534  0.36188663    -0.82800
H1784       H  0.05219287  0.33124803  0.34161127     0.13000
C1785       C  0.09720390  0.36034842  0.35764097     0.02300
N1786       N  0.11164500  0.34115047  0.41792273    -0.81300
H1787       H  0.07872957  0.29683238  0.43915975     0.17800
C1788       C  0.10535878  0.38110786  0.37462094    -0.26200
C1789       C  0.11868422  0.40342225  0.35704164     0.35800
C1790       C  0.12380357  0.40506280  0.32153632    -0.20200
C1791       C  0.11671505  0.38422344  0.30504364    -0.25500
C1792       C  0.10345735  0.36189757  0.32273582     0.27200
H1793       H  0.10072471  0.37989161  0.40145902     0.13000
N1794       N  0.12683412  0.42445897  0.37507526    -0.82700
H1795       H  0.12065416  0.38533593  0.27794472     0.17800
N1796       N  0.09585669  0.34071270  0.30526188    -0.81300
H1797       H  0.12158462  0.42016460  0.40089639     0.33500
H1798       H  0.14542591  0.43317305  0.37462961     0.37900
H1799       H  0.10173685  0.34480987  0.27969394     0.33400
H1800       H  0.10409212  0.33164579  0.31699962     0.30100
H1801       H  0.11430278  0.33168116  0.43874642     0.33400
H1802       H  0.12382704  0.34345797  0.39880183     0.30100
H1803       H  0.00685079  0.28327805  0.38069686     0.38000
H1804       H  0.01688005  0.29666598  0.34157867     0.33500
C1805       C  0.22348685  0.95078575  0.87002980    -0.20300
C1806       C  0.23737920  0.95854458  0.83924582     0.35900
C1807       C  0.24438280  0.94364649  0.82472505    -0.26300
C1808       C  0.23745421  0.92087801  0.83931387     0.02400
C1809       C  0.22308074  0.91273316  0.86925769     0.27200
C1810       C  0.21643930  0.92775514  0.88440077    -0.25400
N1811       N  0.24424558  0.98138897  0.82241196    -0.82800
H1812       H  0.25546638  0.94989088  0.80176319     0.13000
C1813       C  0.24651776  0.90639807  0.82375707     0.02300
N1814       N  0.21515620  0.88915913  0.88404277    -0.81300
H1815       H  0.20553002  0.92127388  0.90751123     0.17800
C1816       C  0.26090503  0.89954526  0.84340472    -0.26200
C1817       C  0.27190897  0.88803299  0.82892549     0.35800
C1818       C  0.26846075  0.88314181  0.79383033    -0.20200
C1819       C  0.25326560  0.88915784  0.77450863    -0.25500
C1820       C  0.24236580  0.90083545  0.78905771     0.27200
H1821       H  0.26414500  0.90385338  0.86998369     0.13000
N1822       N  0.28682070  0.88153155  0.84970290    -0.82700
H1823       H  0.25061362  0.88555614  0.74763338     0.17800
N1824       N  0.22740362  0.90742679  0.76861911    -0.81300
H1825       H  0.28772398  0.88658338  0.87474887     0.33500
H1826       H  0.27878758  0.86310568  0.85141316     0.37900
H1827       H  0.22628749  0.90227338  0.74359895     0.33400
H1828       H  0.21024297  0.89802741  0.77920871     0.30100
H1829       H  0.20472696  0.88583384  0.90600399     0.33400
H1830       H  0.20412217  0.87746460  0.86622501     0.30100
H1831       H  0.22875776  0.98092683  0.81284493     0.38000
H1832       H  0.25516862  0.98463729  0.80105843     0.33500
C1833       C  0.28617613  0.73548430  0.72062564    -0.20300
C1834       C  0.28406337  0.71869274  0.74734352     0.35900
C1835       C  0.27236951  0.69451297  0.74101613    -0.26300
C1836       C  0.26287707  0.68692959  0.70858921     0.02400
C1837       C  0.26492604  0.70370677  0.68209872     0.27200
C1838       C  0.27637828  0.72763028  0.68843049    -0.25400
N1839       N  0.29388489  0.72615272  0.78050391    -0.82800
H1840       H  0.27047169  0.68150563  0.76146451     0.13000
C1841       C  0.24971785  0.66136788  0.70275178     0.02300
N1842       N  0.25532946  0.69634202  0.64875330    -0.81300
H1843       H  0.27759746  0.74027746  0.66784097     0.17800
C1844       C  0.22618512  0.65161597  0.69133318    -0.26200
C1845       C  0.21284677  0.62759705  0.68552831     0.35800
C1846       C  0.22302580  0.61285379  0.69204124    -0.20200
C1847       C  0.24682695  0.62265584  0.70233545    -0.25500
C1848       C  0.26035353  0.64686746  0.70766035     0.27200
H1849       H  0.21804716  0.66276812  0.68750867     0.13000
N1850       N  0.18870799  0.61786818  0.67404473    -0.82700
H1851       H  0.25442635  0.61116804  0.70813696     0.17800
N1852       N  0.28461771  0.65668066  0.71857775    -0.81300
H1853       H  0.18382916  0.63103299  0.67060876     0.33500
H1854       H  0.18799528  0.61161942  0.64988234     0.37900
H1855       H  0.28962765  0.64358795  0.72136277     0.33400
H1856       H  0.29536445  0.66884775  0.69900767     0.30100
H1857       H  0.25805284  0.71083812  0.63219632     0.33400
H1858       H  0.26475500  0.68894109  0.63829511     0.30100
H1859       H  0.31236354  0.73600354  0.77750449     0.38000
H1860       H  0.29040983  0.71155841  0.79735843     0.33500
C1861       C  0.39485609  0.79890422  0.68532022    -0.20300
C1862       C  0.38381186  0.77399675  0.68607895     0.35900
C1863       C  0.39785299  0.76276287  0.69051622    -0.26300
C1864       C  0.42261677  0.77575967  0.69506020     0.02400
C1865       C  0.43370574  0.80065306  0.69296994     0.27200
C1866       C  0.41981541  0.81186073  0.68754932    -0.25400
N1867       N  0.35834749  0.76010893  0.68485057    -0.82800
H1868       H  0.38933430  0.74366630  0.69160461     0.13000
C1869       C  0.43656912  0.76313414  0.70329353     0.02300
N1870       N  0.45889407  0.81447991  0.69808834    -0.81300
H1871       H  0.42845654  0.83095406  0.68709552     0.17800
C1872       C  0.45627567  0.76811047  0.68275053    -0.26200
C1873       C  0.46954290  0.75631054  0.68934402     0.35800
C1874       C  0.46282886  0.73874597  0.71682419    -0.20200
C1875       C  0.44367385  0.73437720  0.73820324    -0.25500
C1876       C  0.43054961  0.74643170  0.73178707     0.27200
H1877       H  0.46116387  0.78108805  0.66114039     0.13000
N1878       N  0.48982762  0.76203932  0.66808390    -0.82700
H1879       H  0.43843601  0.72097490  0.75928678     0.17800
N1880       N  0.41103463  0.74170975  0.75401161    -0.81300
H1881       H  0.49241056  0.77524921  0.64903025     0.33500
H1882       H  0.50485143  0.76905569  0.68361323     0.37900
H1883       H  0.40880826  0.72897370  0.77366486     0.33400
H1884       H  0.41545246  0.75724329  0.76578180     0.30100
H1885       H  0.46426356  0.83251465  0.69590894     0.33400
H1886       H  0.46235390  0.81058594  0.72332458     0.30100
H1887       H  0.35311331  0.76320855  0.66035378     0.38000
H1888       H  0.35301485  0.74209016  0.68765657     0.33500
C1889       C  0.33533218  0.84837906  0.38198124    -0.20300
C1890       C  0.34209056  0.83361653  0.40196712     0.35900
C1891       C  0.34308403  0.83445288  0.43776892    -0.26300
C1892       C  0.33763935  0.84975055  0.45404212     0.02400
C1893       C  0.33099501  0.86457481  0.43428822     0.27200
C1894       C  0.33012323  0.86390471  0.39836478    -0.25400
N1895       N  0.34830150  0.81811238  0.38588887    -0.82800
H1896       H  0.34835084  0.82325180  0.45316898     0.13000
C1897       C  0.33894195  0.84980667  0.49190802     0.02300
N1898       N  0.32478845  0.87990421  0.45084082    -0.81300
H1899       H  0.32479918  0.87513326  0.38316347     0.17800
C1900       C  0.35574477  0.87016848  0.50718114    -0.26200
C1901       C  0.35805167  0.87046174  0.54306707     0.35800
C1902       C  0.34307837  0.84996083  0.56395349    -0.20200
C1903       C  0.32652590  0.82952897  0.54843714    -0.25500
C1904       C  0.32415787  0.82931005  0.51266932     0.27200
H1905       H  0.36727813  0.88575013  0.49097731     0.13000
N1906       N  0.37567733  0.89134063  0.55828488    -0.82700
H1907       H  0.31478621  0.81387395  0.56432906     0.17800
N1908       N  0.30655696  0.80848333  0.49728532    -0.81300
H1909       H  0.38511824  0.90482907  0.53934927     0.33500
H1910       H  0.38795998  0.88722716  0.57046129     0.37900
H1911       H  0.29714278  0.79490403  0.51611527     0.33400
H1912       H  0.29424453  0.81259940  0.48521761     0.30100
H1913       H  0.32028309  0.88963345  0.43263865     0.33400
H1914       H  0.30949789  0.86923984  0.46575816     0.30100
H1915       H  0.36373085  0.82864805  0.37118688     0.38000
H1916       H  0.35253797  0.80828731  0.40429832     0.33500
C1917       C  0.34264184  0.84597581  0.06300068    -0.20300
C1918       C  0.35638513  0.86639643  0.04116427     0.35900
C1919       C  0.35418693  0.86490978  0.00554208    -0.26300
C1920       C  0.33907844  0.84341485  0.99151872     0.02400
C1921       C  0.32649003  0.82276559  0.01308969     0.27200
C1922       C  0.32829237  0.82427596  0.04867570    -0.25400
N1923       N  0.37259723  0.88843840  0.05512026    -0.82800
H1924       H  0.36424982  0.88054957  0.98854166     0.13000
C1925       C  0.33617293  0.84292643  0.95411912     0.02300
N1926       N  0.31163983  0.80047810  0.99874677    -0.81300
H1927       H  0.31785138  0.80851987  0.06523533     0.17800
C1928       C  0.34311455  0.82936328  0.93621247    -0.26200
C1929       C  0.34070769  0.82858154  0.90055335     0.35800
C1930       C  0.33108051  0.84165859  0.88272712    -0.20200
C1931       C  0.32414781  0.85521492  0.90079869    -0.25500
C1932       C  0.32640783  0.85581648  0.93647057     0.27200
H1933       H  0.35071619  0.81963171  0.95012602     0.13000
N1934       N  0.34850128  0.81504562  0.88239008    -0.82700
H1935       H  0.31666740  0.86511508  0.88708522     0.17800
N1936       N  0.31869107  0.86928053  0.95494008    -0.81300
H1937       H  0.36289513  0.82690483  0.86666183     0.33500
H1938       H  0.35485222  0.80630252  0.89945631     0.37900
H1939       H  0.31198776  0.87779546  0.93807074     0.33400
H1940       H  0.30455988  0.85739515  0.97106152     0.30100
H1941       H  0.30380424  0.78695537  0.01818996     0.33400
H1942       H  0.29778376  0.80160896  0.98584359     0.30100
H1943       H  0.38581065  0.88611056  0.06797708     0.38000
H1944       H  0.38120399  0.90163436  0.03547254     0.33500
C1945       C  0.27216909  0.88412164  0.29461359    -0.20300
C1946       C  0.25287104  0.88617416  0.28005230     0.35900
C1947       C  0.24322359  0.89793611  0.29739247    -0.26300
C1948       C  0.25228088  0.90754902  0.32897680     0.02400
C1949       C  0.27101463  0.90491331  0.34399147     0.27200
C1950       C  0.28054959  0.89306564  0.32690165    -0.25400
N1951       N  0.24380009  0.87733660  0.24715348    -0.82800
H1952       H  0.22872617  0.89991221  0.28603270     0.13000
C1953       C  0.24263007  0.92113027  0.34545454     0.02300
N1954       N  0.28079937  0.91495030  0.37603077    -0.81300
H1955       H  0.29514528  0.89139476  0.33855039     0.17800
C1956       C  0.23200119  0.91347906  0.37819371    -0.26200
C1957       C  0.22258093  0.92585684  0.39448622     0.35800
C1958       C  0.22411277  0.94666997  0.37774858    -0.20200
C1959       C  0.23517523  0.95436454  0.34506354    -0.25500
C1960       C  0.24442819  0.94190591  0.32887439     0.27200
H1961       H  0.23079866  0.89755315  0.39091652     0.13000
N1962       N  0.21190055  0.91746777  0.42807590    -0.82700
H1963       H  0.23653125  0.97018910  0.33176186     0.17800
N1964       N  0.25584689  0.95038441  0.29571737    -0.81300
H1965       H  0.21422682  0.90332987  0.43782589     0.33500
H1966       H  0.19356519  0.91061069  0.42532502     0.37900
H1967       H  0.25564756  0.96585476  0.28688115     0.33400
H1968       H  0.27371339  0.95488252  0.29865651     0.30100
H1969       H  0.29449681  0.91143727  0.38366043     0.33400
H1970       H  0.28851372  0.93329541  0.37192988     0.30100
H1971       H  0.23512494  0.85890312  0.25030758     0.38000
H1972       H  0.23084632  0.88183865  0.23909581     0.33500
C1973       C  0.22257829  0.61521573  0.19231974    -0.20300
C1974       C  0.21246546  0.63002811  0.18588531     0.35900
C1975       C  0.22573351  0.65390765  0.19244283    -0.26300
C1976       C  0.24904026  0.66331618  0.20463787     0.02400
C1977       C  0.25988502  0.64901562  0.20831627     0.27200
C1978       C  0.24644022  0.62493782  0.20231828    -0.25400
N1979       N  0.18847743  0.62049324  0.17380849    -0.82800
H1980       H  0.21773574  0.66519333  0.18869800     0.13000
C1981       C  0.26194362  0.68852021  0.21181789     0.02300
N1982       N  0.28428458  0.65892782  0.21859614    -0.81300
H1983       H  0.25412171  0.61347106  0.20750499     0.17800
C1984       C  0.26938662  0.69536590  0.24527552    -0.26200
C1985       C  0.28088693  0.71941722  0.25243262     0.35800
C1986       C  0.28411550  0.73659831  0.22570083    -0.20200
C1987       C  0.27580172  0.72923801  0.19266888    -0.25500
C1988       C  0.26568297  0.70568588  0.18523119     0.27200
H1989       H  0.26636613  0.68194439  0.26565379     0.13000
N1990       N  0.28958325  0.72633375  0.28624687    -0.82700
H1991       H  0.27779243  0.74204977  0.17190960     0.17800
N1992       N  0.25954727  0.69910108  0.15052514    -0.81300
H1993       H  0.28553656  0.71147294  0.30284193     0.33500
H1994       H  0.30813550  0.73608731  0.28453674     0.37900
H1995       H  0.26341120  0.71389734  0.13388807     0.33400
H1996       H  0.27046843  0.69249295  0.14283078     0.30100
H1997       H  0.28952494  0.64599478  0.22021200     0.33400
H1998       H  0.29472252  0.67148310  0.19917027     0.30100
H1999       H  0.18803852  0.61448637  0.14954322     0.38000
H2000       H  0.18368775  0.63372473  0.17042709     0.33500
C2001       C  0.45530370  0.73102804  0.20899705    -0.20300
C2002       C  0.46037213  0.74666820  0.17944416     0.35900
C2003       C  0.44757376  0.75884644  0.17310900    -0.26300
C2004       C  0.42981896  0.75610048  0.19591704     0.02400
C2005       C  0.42491436  0.74086209  0.22595277     0.27200
C2006       C  0.43768763  0.72843092  0.23217816    -0.25400
N2007       N  0.47901044  0.75073769  0.15609962    -0.82800
H2008       H  0.45164765  0.77067776  0.15021445     0.13000
C2009       C  0.41732330  0.77012021  0.18866201     0.02300
N2010       N  0.40714881  0.73824707  0.25008376    -0.81300
H2011       H  0.43365644  0.71644856  0.25487762     0.17800
C2012       C  0.39254344  0.75855760  0.18456184    -0.26200
C2013       C  0.38007231  0.77134714  0.18002420     0.35800
C2014       C  0.39270964  0.79629462  0.18015009    -0.20200
C2015       C  0.41766984  0.80778543  0.18185754    -0.25500
C2016       C  0.43006629  0.79502513  0.18620425     0.27200
H2017       H  0.38286407  0.73943694  0.18558552     0.13000
N2018       N  0.35459392  0.75898086  0.17733285    -0.82700
H2019       H  0.42752130  0.82688484  0.18152791     0.17800
N2020       N  0.45550514  0.80727745  0.18949388    -0.81300
H2021       H  0.34802004  0.74071924  0.17953958     0.33500
H2022       H  0.35043601  0.76299172  0.15258077     0.37900
H2023       H  0.46221460  0.82555446  0.18683728     0.33400
H2024       H  0.45942479  0.80331823  0.21442331     0.30100
H2025       H  0.40559873  0.72636883  0.27069789     0.33400
H2026       H  0.41302711  0.75461113  0.26022164     0.30100
H2027       H  0.47168627  0.74659913  0.13172091     0.38000
H2028       H  0.49145469  0.76873610  0.15493160     0.33500
C2029       C  0.63988016  0.58849715  0.61752441    -0.20300
C2030       C  0.65612690  0.60683739  0.63730898     0.35900
C2031       C  0.64868545  0.62084804  0.65335769    -0.26300
C2032       C  0.62545259  0.61704808  0.64935706     0.02400
C2033       C  0.61013566  0.60062441  0.62623541     0.27200
C2034       C  0.61744184  0.58625332  0.61075153    -0.25400
N2035       N  0.67963767  0.61001200  0.64275771    -0.82800
H2036       H  0.66062952  0.63400182  0.67024654     0.13000
C2037       C  0.61693320  0.62956237  0.67050083     0.02300
N2038       N  0.58709977  0.59829614  0.61917516    -0.81300
H2039       H  0.60498197  0.57211518  0.59562553     0.17800
C2040       C  0.62127906  0.65222478  0.65916220    -0.26200
C2041       C  0.61016153  0.66296519  0.67537352     0.35800
C2042       C  0.59440183  0.65073779  0.70341876    -0.20200
C2043       C  0.59206374  0.62915162  0.71695714    -0.25500
C2044       C  0.60325175  0.61840019  0.70072224     0.27200
H2045       H  0.63232511  0.66097446  0.63652153     0.13000
N2046       N  0.61347540  0.68559945  0.66211880    -0.82700
H2047       H  0.57991510  0.61974452  0.73833302     0.17800
N2048       N  0.60028596  0.59594767  0.71423972    -0.81300
H2049       H  0.62535609  0.69214907  0.64124745     0.33500
H2050       H  0.62140411  0.69735025  0.68135204     0.37900
H2051       H  0.59006782  0.59035598  0.73684736     0.33400
H2052       H  0.59066916  0.58347064  0.69652448     0.30100
H2053       H  0.57829556  0.58583522  0.60107789     0.33400
H2054       H  0.57687209  0.59175669  0.64172420     0.30100
H2055       H  0.68832766  0.61475552  0.61887267     0.38000
H2056       H  0.68939576  0.62409260  0.65810999     0.33500
C2057       C  0.72529423  0.60578590  0.53880539    -0.20300
C2058       C  0.72468142  0.60915008  0.50277416     0.35900
C2059       C  0.73438706  0.63204345  0.48693151    -0.26300
C2060       C  0.74480290  0.65186283  0.50638843     0.02400
C2061       C  0.74643067  0.64863161  0.54240094     0.27200
C2062       C  0.73673153  0.62560860  0.55820378    -0.25400
N2063       N  0.71398967  0.58929932  0.48213628    -0.82800
H2064       H  0.73303765  0.63429039  0.45934924     0.13000
C2065       C  0.75269614  0.67573349  0.48906648     0.02300
N2066       N  0.75746235  0.66872552  0.56282729    -0.81300
H2067       H  0.73711085  0.62311306  0.58590464     0.17800
C2068       C  0.74333361  0.68950674  0.50057162    -0.26200
C2069       C  0.75152865  0.71278575  0.48702150     0.35800
C2070       C  0.76923937  0.72245754  0.46099952    -0.20200
C2071       C  0.77727998  0.70815151  0.44750485    -0.25500
C2072       C  0.76934432  0.68488589  0.46153324     0.27200
H2073       H  0.73000217  0.68223801  0.52090857     0.13000
N2074       N  0.74265057  0.72706209  0.50048273    -0.82700
H2075       H  0.79110551  0.71571801  0.42786786     0.17800
N2076       N  0.77890731  0.67094045  0.44900000    -0.81300
H2077       H  0.72989816  0.71745545  0.51976549     0.33500
H2078       H  0.73398498  0.73134265  0.48056864     0.37900
H2079       H  0.79088253  0.68021296  0.42870942     0.33400
H2080       H  0.78863290  0.66813578  0.46883354     0.30100
H2081       H  0.75691874  0.66333167  0.58882745     0.33400
H2082       H  0.77540926  0.67838875  0.55558925     0.30100
H2083       H  0.70036258  0.59016590  0.46813638     0.38000
H2084       H  0.72683525  0.59089766  0.46468280     0.33500
C2085       C  0.65354434  0.49734775  0.77744949    -0.20300
C2086       C  0.66934790  0.49255793  0.79790252     0.35900
C2087       C  0.67002543  0.49492739  0.83350569    -0.26300
C2088       C  0.65561055  0.50233973  0.84898127     0.02400
C2089       C  0.63948321  0.50657041  0.82893247     0.27200
C2090       C  0.63866486  0.50412881  0.79342881    -0.25400
N2091       N  0.68520760  0.48611421  0.78251057    -0.82800
H2092       H  0.68227448  0.49154313  0.84923254     0.13000
C2093       C  0.65736721  0.50528029  0.88639980     0.02300
N2094       N  0.62396810  0.51326634  0.84479549    -0.81300
H2095       H  0.62634079  0.50764305  0.77811917     0.17800
C2096       C  0.66714399  0.52797720  0.89841327    -0.26200
C2097       C  0.66976449  0.53130767  0.93387331     0.35800
C2098       C  0.66203705  0.51145501  0.95756932    -0.20200
C2099       C  0.65202197  0.48878837  0.94530073    -0.25500
C2100       C  0.64955477  0.48550565  0.91001891     0.27200
H2101       H  0.67321395  0.54312038  0.88001003     0.13000
N2102       N  0.68089211  0.55469293  0.94577449    -0.82700
H2103       H  0.64599160  0.47350493  0.96343686     0.17800
N2104       N  0.63915218  0.46217736  0.89798648    -0.81300
H2105       H  0.68563930  0.56730815  0.92503252     0.33500
H2106       H  0.69674558  0.55765121  0.95766182     0.37900
H2107       H  0.63439320  0.44950545  0.91864719     0.33400
H2108       H  0.62338790  0.45887529  0.88550398     0.30100
H2109       H  0.61318194  0.51580157  0.82645856     0.33400
H2110       H  0.61258062  0.49911461  0.86161276     0.30100
H2111       H  0.69515958  0.48262882  0.80125719     0.38000
H2112       H  0.69735872  0.50075630  0.76711571     0.33500
C2113       C  0.64545290  0.48598191  0.27826206    -0.20300
C2114       C  0.65842875  0.47782442  0.29963899     0.35900
C2115       C  0.65791968  0.47901466  0.33544289    -0.26300
C2116       C  0.64446544  0.48773177  0.35042064     0.02400
C2117       C  0.63019478  0.49419969  0.32953114     0.27200
C2118       C  0.63085876  0.49330787  0.29379286    -0.25400
N2119       N  0.67291797  0.46939601  0.28511581    -0.82800
H2120       H  0.66873699  0.47388770  0.35170793     0.13000
C2121       C  0.64681075  0.49161803  0.38762182     0.02300
N2122       N  0.61552053  0.50219724  0.34471762    -0.81300
H2123       H  0.62032775  0.49899840  0.27789757     0.17800
C2124       C  0.65528101  0.51459722  0.39791945    -0.26200
C2125       C  0.65926773  0.51946435  0.43269222     0.35800
C2126       C  0.65445294  0.50087276  0.45771170    -0.20200
C2127       C  0.64555327  0.47780379  0.44730804    -0.25500
C2128       C  0.64167001  0.47298478  0.41259513     0.27200
H2129       H  0.65948783  0.52892343  0.37856142     0.13000
N2130       N  0.66905324  0.54327995  0.44243598    -0.82700
H2131       H  0.64153098  0.46337721  0.46641556     0.17800
N2132       N  0.63253225  0.44927540  0.40259857    -0.81300
H2133       H  0.67145011  0.55481756  0.42094031     0.33500
H2134       H  0.68598593  0.54818795  0.45209700     0.37900
H2135       H  0.62989280  0.43765790  0.42408961     0.33400
H2136       H  0.61579773  0.44404595  0.39191525     0.30100
H2137       H  0.60620444  0.50647259  0.32583084     0.33400
H2138       H  0.60279857  0.48810785  0.36032411     0.30100
H2139       H  0.66141358  0.45330760  0.27490324     0.38000
H2140       H  0.68246322  0.46562978  0.30423217     0.33500
C2141       C  0.63907581  0.58775525  0.12820052    -0.20300
C2142       C  0.61874960  0.58926809  0.11807832     0.35900
C2143       C  0.61328779  0.60477369  0.13420456    -0.26300
C2144       C  0.62758751  0.61826986  0.16059940     0.02400
C2145       C  0.64870881  0.61788176  0.16909412     0.27200
C2146       C  0.65434836  0.60273017  0.15260633    -0.25400
N2147       N  0.60273367  0.57359835  0.09386709    -0.82800
H2148       H  0.59705546  0.60523920  0.12778545     0.13000
C2149       C  0.61882996  0.63068969  0.18138272     0.02300
N2150       N  0.66352094  0.63178865  0.19583366    -0.81300
H2151       H  0.66979111  0.60120944  0.16072566     0.17800
C2152       C  0.60571511  0.61913605  0.21164600    -0.26200
C2153       C  0.59305609  0.62816263  0.22844446     0.35800
C2154       C  0.59381554  0.64914523  0.21463144    -0.20200
C2155       C  0.60910058  0.66189564  0.18658613    -0.25500
C2156       C  0.62146866  0.65277151  0.16962690     0.27200
H2157       H  0.60412121  0.60228604  0.22082075     0.13000
N2158       N  0.57787369  0.61511092  0.25743329    -0.82700
H2159       H  0.60966141  0.67804187  0.17598698     0.17800
N2160       N  0.63545687  0.66506538  0.13929832    -0.81300
H2161       H  0.57882653  0.59968760  0.26373626     0.33500
H2162       H  0.58451711  0.62548358  0.27843752     0.37900
H2163       H  0.63517582  0.68089314  0.13363501     0.33400
H2164       H  0.65310654  0.66965661  0.14469849     0.30100
H2165       H  0.67816340  0.62908105  0.19953924     0.33400
H2166       H  0.67027965  0.64956495  0.18751619     0.30100
H2167       H  0.61182047  0.57781639  0.07037279     0.38000
H2168       H  0.58823542  0.57649932  0.08983809     0.33500
C2169       C  0.72155731  0.60897825  0.04204883    -0.20300
C2170       C  0.74300357  0.61573260  0.02451187     0.35900
C2171       C  0.75399733  0.63739671  0.00469492    -0.26300
C2172       C  0.74426411  0.65268919  0.00277323     0.02400
C2173       C  0.72258779  0.64565818  0.02021367     0.27200
C2174       C  0.71131307  0.62371455  0.03915160    -0.25400
N2175       N  0.75328590  0.60041645  0.02644623    -0.82800
H2176       H  0.77036209  0.64249040  0.99087566     0.13000
C2177       C  0.75778270  0.67669553  0.98485931     0.02300
N2178       N  0.71232125  0.66098372  0.01924476    -0.81300
H2179       H  0.69461602  0.61822366  0.05234542     0.17800
C2180       C  0.74635009  0.68512890  0.96110743    -0.26200
C2181       C  0.75757729  0.70898694  0.94826006     0.35800
C2182       C  0.78087359  0.72436950  0.95868339    -0.20200
C2183       C  0.79292401  0.71542300  0.97990165    -0.25500
C2184       C  0.78164114  0.69195015  0.99345363     0.27200
H2185       H  0.72824440  0.67331780  0.95380106     0.13000
N2186       N  0.74508814  0.71779544  0.92611785    -0.82700
H2187       H  0.81095455  0.72727761  0.98755655     0.17800
N2188       N  0.79401531  0.68396156  0.01728583    -0.81300
H2189       H  0.72809547  0.70416098  0.92096667     0.33500
H2190       H  0.74268272  0.72989917  0.93936843     0.37900
H2191       H  0.81152973  0.69729178  0.02037941     0.33400
H2192       H  0.78557183  0.68031932  0.04122219     0.30100
H2193       H  0.69627804  0.65304617  0.03309731     0.33400
H2194       H  0.72395646  0.67606610  0.03165490     0.30100
H2195       H  0.74151088  0.58496309  0.01491851     0.38000
H2196       H  0.76914240  0.60803754  0.01217915     0.33500
C2197       C  0.59796229  0.39574855  0.66065041    -0.20300
C2198       C  0.57291057  0.38301201  0.65849784     0.35900
C2199       C  0.56178450  0.36001687  0.64743602    -0.26300
C2200       C  0.57498431  0.34894242  0.63984924     0.02400
C2201       C  0.59977633  0.36074910  0.64541367     0.27200
C2202       C  0.61104630  0.38409537  0.65563167    -0.25400
N2203       N  0.55898155  0.39399030  0.66598506    -0.82800
H2204       H  0.54272522  0.35093032  0.64372514     0.13000
C2205       C  0.56242883  0.32484818  0.62677721     0.02300
N2206       N  0.61347089  0.34923023  0.63974516    -0.81300
H2207       H  0.63026590  0.39375513  0.65718850     0.17800
C2208       C  0.57024125  0.32019107  0.59630008    -0.26200
C2209       C  0.55970808  0.29709675  0.58498461     0.35800
C2210       C  0.54060779  0.27861803  0.60402337    -0.20200
C2211       C  0.53173588  0.28373980  0.63281050    -0.25500
C2212       C  0.54267046  0.30638677  0.64482561     0.27200
H2213       H  0.58506897  0.33446731  0.58195388     0.13000
N2214       N  0.56891670  0.29224003  0.55530135    -0.82700
H2215       H  0.51705399  0.26948555  0.64747546     0.17800
N2216       N  0.53445570  0.31040877  0.67626116    -0.81300
H2217       H  0.58297035  0.30780230  0.54420165     0.33500
H2218       H  0.57603707  0.28134102  0.56355528     0.37900
H2219       H  0.51971200  0.29498741  0.68630378     0.33400
H2220       H  0.54800373  0.31470156  0.69423086     0.30100
H2221       H  0.63144050  0.36034458  0.64471274     0.33400
H2222       H  0.60761735  0.33464747  0.65755218     0.30100
H2223       H  0.56127307  0.39745614  0.69193303     0.38000
H2224       H  0.54086985  0.38239850  0.66282327     0.33500
C2225       C  0.35684404  0.95124225  0.71149958    -0.20300
C2226       C  0.37658933  0.96963255  0.72673819     0.35900
C2227       C  0.38523436  0.99294859  0.71274834    -0.26300
C2228       C  0.37462143  0.99785361  0.68374738     0.02400
C2229       C  0.35367173  0.97981962  0.67065802     0.27200
C2230       C  0.34490712  0.95663841  0.68476087    -0.25400
N2231       N  0.38871578  0.96445646  0.75456600    -0.82800
H2232       H  0.40130489  0.00707604  0.72280408     0.13000
C2233       C  0.38739555  0.02115798  0.66479007     0.02300
N2234       N  0.34216883  0.98502058  0.64199385    -0.81300
H2235       H  0.32959376  0.94243912  0.67331796     0.17800
C2236       C  0.39792854  0.02288954  0.63282028    -0.26200
C2237       C  0.41420509  0.04500293  0.61707084     0.35800
C2238       C  0.41938778  0.06549135  0.63346839    -0.20200
C2239       C  0.40692253  0.06366132  0.66367321    -0.25500
C2240       C  0.39120612  0.04165630  0.67976837     0.27200
H2241       H  0.39468687  0.00690566  0.62139264     0.13000
N2242       N  0.42650469  0.04660293  0.58593908    -0.82700
H2243       H  0.41059723  0.07952929  0.67587955     0.17800
N2244       N  0.37993409  0.03997792  0.71195806    -0.81300
H2245       H  0.42049679  0.02981297  0.57722262     0.33500
H2246       H  0.44447679  0.05315880  0.59174572     0.37900
H2247       H  0.38492928  0.05679825  0.71977555     0.33400
H2248       H  0.36159271  0.03173995  0.70796834     0.30100
H2249       H  0.32706477  0.96967950  0.63512698     0.33400
H2250       H  0.33623084  0.99628269  0.65001627     0.30100
H2251       H  0.39629102  0.95494294  0.74512745     0.38000
H2252       H  0.40279156  0.98005256  0.76290902     0.33500
C2253       C  0.28789307  0.05075119  0.44802462    -0.20300
C2254       C  0.29561547  0.04104264  0.47569442     0.35900
C2255       C  0.31757401  0.05516806  0.49098790    -0.26300
C2256       C  0.33188536  0.07886202  0.47933147     0.02400
C2257       C  0.32498318  0.08809649  0.45011244     0.27200
C2258       C  0.30308138  0.07381685  0.43449380    -0.25400
N2259       N  0.28037439  0.01723563  0.48935500    -0.82800
H2260       H  0.32319225  0.04795393  0.51288553     0.13000
C2261       C  0.35381683  0.09382723  0.49840253     0.02300
N2262       N  0.33960833  0.11229469  0.43763297    -0.81300
H2263       H  0.29690856  0.08138477  0.41374375     0.17800
C2264       C  0.37585505  0.10371671  0.48154146    -0.26200
C2265       C  0.39709142  0.11707297  0.49893194     0.35800
C2266       C  0.39631182  0.12047710  0.53423235    -0.20200
C2267       C  0.37419734  0.11124291  0.55086033    -0.25500
C2268       C  0.35289697  0.09790468  0.53327580     0.27200
H2269       H  0.37648211  0.10063636  0.45478250     0.13000
N2270       N  0.41951346  0.12702680  0.48092108    -0.82700
H2271       H  0.37357197  0.11373880  0.57786993     0.17800
N2272       N  0.33034277  0.08828238  0.55071524    -0.81300
H2273       H  0.41700076  0.12278392  0.45528767     0.33500
H2274       H  0.42733166  0.14539973  0.48065585     0.37900
H2275       H  0.33274418  0.09268761  0.57627497     0.33400
H2276       H  0.32111429  0.09632250  0.53894497     0.30100
H2277       H  0.33198610  0.11637107  0.41610091     0.33400
H2278       H  0.34000284  0.12293066  0.45674837     0.30100
H2279       H  0.27832369  0.00599118  0.47018813     0.38000
H2280       H  0.28841646  0.01284590  0.51004965     0.33500
C2281       C  0.50441803  0.17305676  0.94693623    -0.20300
C2282       C  0.52425481  0.19123475  0.92837213     0.35900
C2283       C  0.52556373  0.19091847  0.89272622    -0.26300
C2284       C  0.50767981  0.17263137  0.87518916     0.02400
C2285       C  0.48807268  0.15420399  0.89339510     0.27200
C2286       C  0.48665676  0.15455735  0.92911935    -0.25400
N2287       N  0.54343711  0.20975187  0.94552761    -0.82800
H2288       H  0.54076643  0.20494150  0.87863870     0.13000
C2289       C  0.50968519  0.17316582  0.83761639     0.02300
N2290       N  0.46962000  0.13537525  0.87545586    -0.81300
H2291       H  0.47142028  0.14045774  0.94297992     0.17800
C2292       C  0.51336555  0.15606864  0.82322552    -0.26200
C2293       C  0.51496992  0.15585658  0.78749143     0.35800
C2294       C  0.51267793  0.17304557  0.76601306    -0.20200
C2295       C  0.50975715  0.19057586  0.78062837    -0.25500
C2296       C  0.50797422  0.19065477  0.81627218     0.27200
H2297       H  0.51495136  0.14288192  0.83998050     0.13000
N2298       N  0.51897654  0.13838000  0.77296824    -0.82700
H2299       H  0.50776672  0.20362714  0.76413482     0.17800
N2300       N  0.50383239  0.20801784  0.83090619    -0.81300
H2301       H  0.52018278  0.12704504  0.79233554     0.33500
H2302       H  0.53551412  0.14722656  0.76039771     0.37900
H2303       H  0.50303880  0.21964267  0.81163890     0.33400
H2304       H  0.48708266  0.19913643  0.84286930     0.30100
H2305       H  0.45649208  0.12312921  0.89265371     0.33400
H2306       H  0.46142622  0.14269462  0.85919738     0.30100
H2307       H  0.54536788  0.22589751  0.93523058     0.38000
H2308       H  0.55905634  0.20933081  0.94024106     0.33500
C2309       C  0.48853217  0.16508188  0.44835999    -0.20300
C2310       C  0.48293513  0.17987461  0.42642436     0.35900
C2311       C  0.48402598  0.17905809  0.39071071    -0.26300
C2312       C  0.49081172  0.16394861  0.37679160     0.02400
C2313       C  0.49633964  0.14913338  0.39854625     0.27200
C2314       C  0.49482501  0.14959548  0.43424563    -0.25400
N2315       N  0.47609746  0.19554766  0.44050775    -0.82800
H2316       H  0.47978835  0.19035007  0.37362079     0.13000
C2317       C  0.49230592  0.16393776  0.33924559     0.02300
N2318       N  0.50397590  0.13413675  0.38420221    -0.81300
H2319       H  0.49927602  0.13837550  0.45113584     0.17800
C2320       C  0.51450444  0.17703351  0.32280559    -0.26200
C2321       C  0.51670487  0.17731348  0.28709087     0.35800
C2322       C  0.49616434  0.16438149  0.26762639    -0.20200
C2323       C  0.47398212  0.15096259  0.28437679    -0.25500
C2324       C  0.47186276  0.15064004  0.32008877     0.27200
H2325       H  0.53013615  0.18695482  0.33798263     0.13000
N2326       N  0.53969715  0.19035076  0.27063779    -0.82700
H2327       H  0.45818857  0.14103027  0.26949871     0.17800
N2328       N  0.44907949  0.13709608  0.33700350    -0.81300
H2329       H  0.55288314  0.19895896  0.28863085     0.33500
H2330       H  0.54349958  0.17816390  0.26024877     0.37900
H2331       H  0.43578661  0.12845546  0.31915681     0.33400
H2332       H  0.44973104  0.12391518  0.35323347     0.30100
H2333       H  0.50775839  0.12460701  0.40370050     0.33400
H2334       H  0.48978718  0.12176465  0.37044903     0.30100
H2335       H  0.46003834  0.18515910  0.45388508     0.38000
H2336       H  0.47276746  0.20534073  0.42088543     0.33500
C2337       C  0.61234276  0.39714306  0.15413378    -0.20300
C2338       C  0.62815357  0.38834791  0.14888890     0.35900
C2339       C  0.61906856  0.36542539  0.13810969    -0.26300
C2340       C  0.59465547  0.35118531  0.13316680     0.02400
C2341       C  0.57870857  0.35911696  0.14135072     0.27200
C2342       C  0.58774935  0.38214156  0.15143592    -0.25400
N2343       N  0.65337007  0.40305182  0.15263243    -0.82800
H2344       H  0.63101813  0.35860363  0.13339882     0.13000
C2345       C  0.58570496  0.32670276  0.12449910     0.02300
N2346       N  0.55344933  0.34364400  0.13993753    -0.81300
H2347       H  0.57562005  0.38881057  0.15578245     0.17800
C2348       C  0.58355842  0.31044592  0.15122166    -0.26200
C2349       C  0.57311403  0.28645292  0.14612587     0.35800
C2350       C  0.56388618  0.27836306  0.11326571    -0.20200
C2351       C  0.56757010  0.29504963  0.08580539    -0.25500
C2352       C  0.57861663  0.31932084  0.09111164     0.27200
H2353       H  0.58969664  0.31655887  0.17653136     0.13000
N2354       N  0.57141228  0.27035556  0.17463711    -0.82700
H2355       H  0.56110979  0.28914013  0.06054451     0.17800
N2356       N  0.58288908  0.33642039  0.06286865    -0.81300
H2357       H  0.57821831  0.27920909  0.19698323     0.33500
H2358       H  0.58219010  0.26319113  0.16897787     0.37900
H2359       H  0.57704498  0.32806789  0.03994263     0.33400
H2360       H  0.57270807  0.34455457  0.06689226     0.30100
H2361       H  0.54423864  0.35204582  0.14776725     0.33400
H2362       H  0.54896594  0.34006906  0.11435351     0.30100
H2363       H  0.65653577  0.40610563  0.17864612     0.38000
H2364       H  0.66245438  0.39417825  0.14629646     0.33500
C2365       C  0.41663576  0.06462534  0.11463375    -0.20300
C2366       C  0.41927746  0.04555351  0.10514695     0.35900
C2367       C  0.40443673  0.02285675  0.12064413    -0.26300
C2368       C  0.38723590  0.01917721  0.14529826     0.02400
C2369       C  0.38322243  0.03779536  0.15249883     0.27200
C2370       C  0.39798630  0.06040577  0.13703400    -0.25400
N2371       N  0.43830431  0.04967329  0.08235838    -0.82800
H2372       H  0.40719045  0.00826966  0.11507874     0.13000
C2373       C  0.37529544  0.99636519  0.16574769     0.02300
N2374       N  0.36518881  0.03392310  0.17705653    -0.81300
H2375       H  0.39614464  0.07518472  0.14447263     0.17800
C2376       C  0.38573046  0.99344638  0.19641229    -0.26200
C2377       C  0.37718207  0.97100726  0.21377891     0.35800
C2378       C  0.35768766  0.95144628  0.20024513    -0.20200
C2379       C  0.34600488  0.95496912  0.17133325    -0.25500
C2380       C  0.35486239  0.97718221  0.15359718     0.27200
H2381       H  0.40141288  0.00846451  0.20561777     0.13000
N2382       N  0.38942209  0.96771024  0.24309637    -0.82700
H2383       H  0.33103655  0.93986511  0.16089913     0.17800
N2384       N  0.34418173  0.98003679  0.12214512    -0.81300
H2385       H  0.40399802  0.98379629  0.24890831     0.33500
H2386       H  0.37773882  0.96205000  0.26412975     0.37900
H2387       H  0.32965903  0.96395564  0.11618220     0.33400
H2388       H  0.33745607  0.99141246  0.12612322     0.30100
H2389       H  0.36488302  0.04962294  0.18002993     0.33400
H2390       H  0.34871995  0.02227879  0.16700477     0.30100
H2391       H  0.43492293  0.05555678  0.05834245     0.38000
H2392       H  0.43829142  0.03386889  0.07893785     0.33500
C2393       C  0.40194750  0.13313474  0.01994201    -0.20300
C2394       C  0.40296127  0.13027352  0.98459497     0.35900
C2395       C  0.38186198  0.11810365  0.96621871    -0.26300
C2396       C  0.35965479  0.10829337  0.98266008     0.02400
C2397       C  0.35850286  0.11201725  0.01760793     0.27200
C2398       C  0.37967520  0.12468075  0.03580903    -0.25400
N2399       N  0.42544813  0.13937909  0.96739535    -0.82800
H2400       H  0.38285119  0.11540154  0.93938417     0.13000
C2401       C  0.33779014  0.09234262  0.96423154     0.02300
N2402       N  0.33579987  0.10214113  0.03471607    -0.81300
H2403       H  0.37877609  0.12678948  0.06290874     0.17800
C2404       C  0.32582233  0.06829186  0.97508291    -0.26200
C2405       C  0.30346563  0.05291534  0.96193565     0.35800
C2406       C  0.29288550  0.06169382  0.93718784    -0.20200
C2407       C  0.30569267  0.08536276  0.92426358    -0.25500
C2408       C  0.32810693  0.10086167  0.93768636     0.27200
H2409       H  0.33352517  0.06173822  0.99504540     0.13000
N2410       N  0.29069751  0.02864787  0.97508867    -0.82700
H2411       H  0.29733482  0.09222870  0.90586949     0.17800
N2412       N  0.34047278  0.12537790  0.92574096    -0.81300
H2413       H  0.30073176  0.02500425  0.99350838     0.33500
H2414       H  0.28845335  0.01818709  0.95473126     0.37900
H2415       H  0.33100570  0.12878189  0.90610479     0.33400
H2416       H  0.34101341  0.13521190  0.94609888     0.30100
H2417       H  0.33797058  0.10610904  0.06046473     0.33400
H2418       H  0.32663811  0.11031749  0.02316044     0.30100
H2419       H  0.42614259  0.12528717  0.95722589     0.38000
H2420       H  0.42627950  0.15108211  0.94696344     0.33500
C2421       C  0.88427302  0.27827369  0.57181775    -0.20300
C2422       C  0.90117971  0.28907049  0.54445710     0.35900
C2423       C  0.91047825  0.27635754  0.52928181    -0.26300
C2424       C  0.90364093  0.25303691  0.54064156     0.02400
C2425       C  0.88665046  0.24189549  0.56741394     0.27200
C2426       C  0.87707603  0.25455791  0.58266289    -0.25400
N2427       N  0.90937363  0.31309278  0.53199555    -0.82800
H2428       H  0.92360615  0.28500026  0.50878975     0.13000
C2429       C  0.91554959  0.24120988  0.52511942     0.02300
N2430       N  0.87933150  0.21784172  0.57910188    -0.81300
H2431       H  0.86410792  0.24587421  0.60330041     0.17800
C2432       C  0.93288526  0.23837992  0.54387048    -0.26200
C2433       C  0.94677101  0.23001929  0.52883458     0.35800
C2434       C  0.94278085  0.22367994  0.49430410    -0.20200
C2435       C  0.92471241  0.22578960  0.47604112    -0.25500
C2436       C  0.91135066  0.23481486  0.49090929     0.27200
H2437       H  0.93615772  0.24352936  0.57007963     0.13000
N2438       N  0.96459346  0.22767489  0.54885979    -0.82700
H2439       H  0.92139579  0.22093662  0.44970878     0.17800
N2440       N  0.89380754  0.23792807  0.47125680    -0.81300
H2441       H  0.96369334  0.23116944  0.57433150     0.33500
H2442       H  0.98118319  0.24089997  0.53949807     0.37900
H2443       H  0.89291030  0.23251427  0.44644954     0.33400
H2444       H  0.87724074  0.22679602  0.48293590     0.30100
H2445       H  0.86674610  0.21219112  0.59897288     0.33400
H2446       H  0.87081165  0.20733035  0.55873169     0.30100
H2447       H  0.92781310  0.32251976  0.53495881     0.38000
H2448       H  0.90579158  0.31335827  0.50576968     0.33500
C2449       C  0.78583683  0.39222897  0.66860416    -0.20300
C2450       C  0.79557638  0.41698848  0.66434277     0.35900
C2451       C  0.78049296  0.42664342  0.65778938    -0.26300
C2452       C  0.75576027  0.41221171  0.65639073     0.02400
C2453       C  0.74583458  0.38751266  0.66252855     0.27200
C2454       C  0.76100884  0.37773863  0.66848129    -0.25400
N2455       N  0.82086713  0.43221514  0.66590640    -0.82800
H2456       H  0.78812655  0.44559400  0.65312079     0.13000
C2457       C  0.74075319  0.42351686  0.64860086     0.02300
N2458       N  0.72047975  0.37248901  0.66214743    -0.81300
H2459       H  0.75349666  0.35872143  0.67134354     0.17800
C2460       C  0.72504021  0.41665606  0.62079001    -0.26200
C2461       C  0.71114442  0.42759394  0.61238113     0.35800
C2462       C  0.71352517  0.44613187  0.63169069    -0.20200
C2463       C  0.72934377  0.45299283  0.65929852    -0.25500
C2464       C  0.74277396  0.44179656  0.66814025     0.27200
H2465       H  0.72360146  0.40270637  0.60566390     0.13000
N2466       N  0.69427016  0.41955660  0.58502737    -0.82700
H2467       H  0.73108316  0.46709820  0.67435773     0.17800
N2468       N  0.75831768  0.44876430  0.69715582    -0.81300
H2469       H  0.69474612  0.40579487  0.57343565     0.33500
H2470       H  0.67728406  0.41246358  0.59595340     0.37900
H2471       H  0.75785546  0.46255142  0.70869283     0.33400
H2472       H  0.75182715  0.43438992  0.71540593     0.30100
H2473       H  0.71607462  0.35477788  0.66682318     0.33400
H2474       H  0.71323178  0.37664155  0.68246884     0.30100
H2475       H  0.82616865  0.42995723  0.69076894     0.38000
H2476       H  0.82516379  0.44994141  0.66211275     0.33500
C2477       C  0.60414923  0.22724874  0.65440738    -0.20300
C2478       C  0.61805899  0.21656578  0.66441731     0.35900
C2479       C  0.64288548  0.23048967  0.66544398    -0.26300
C2480       C  0.65410628  0.25483607  0.65638351     0.02400
C2481       C  0.64010860  0.26574407  0.64819232     0.27200
C2482       C  0.61518118  0.25182077  0.64757617    -0.25400
N2483       N  0.60691078  0.19147385  0.67234751    -0.82800
H2484       H  0.65362515  0.22213243  0.67178131     0.13000
C2485       C  0.68047481  0.26809483  0.65309900     0.02300
N2486       N  0.65130913  0.29074313  0.63948167    -0.81300
H2487       H  0.60444450  0.25995126  0.63971648     0.17800
C2488       C  0.69105187  0.27950433  0.62128055    -0.26200
C2489       C  0.71588696  0.29089133  0.61635501     0.35800
C2490       C  0.73045009  0.29037657  0.64369047    -0.20200
C2491       C  0.71972617  0.27902885  0.67559101    -0.25500
C2492       C  0.69499888  0.26807104  0.68063548     0.27200
H2493       H  0.67981913  0.27934508  0.60008078     0.13000
N2494       N  0.72628676  0.30325859  0.58394982    -0.82700
H2495       H  0.73070258  0.27864842  0.69682374     0.17800
N2496       N  0.68455576  0.25691766  0.71361725    -0.81300
H2497       H  0.71308120  0.30173585  0.56657852     0.33500
H2498       H  0.73638784  0.32120248  0.58813026     0.37900
H2499       H  0.69766187  0.25831618  0.73109934     0.33400
H2500       H  0.67671655  0.26619895  0.72303376     0.30100
H2501       H  0.63854091  0.29593486  0.63360949     0.33400
H2502       H  0.66014933  0.29929187  0.66125453     0.30100
H2503       H  0.59609160  0.18748444  0.69406812     0.38000
H2504       H  0.61963776  0.18635038  0.67894369     0.33500
C2505       C  0.95083972  0.37055371  0.64986756    -0.20300
C2506       C  0.95635865  0.35692933  0.67464375     0.35900
C2507       C  0.97849856  0.36732543  0.69074995    -0.26300
C2508       C  0.99546092  0.39083120  0.68230315     0.02400
C2509       C  0.99100368  0.40371984  0.65520354     0.27200
C2510       C  0.96859205  0.39346565  0.63934311    -0.25400
N2511       N  0.93945182  0.33288288  0.68528690    -0.82800
H2512       H  0.98222837  0.35717026  0.71075549     0.13000
C2513       C  0.01786054  0.40169876  0.70193978     0.02300
N2514       N  0.00908555  0.42723829  0.64432316    -0.81300
H2515       H  0.96438381  0.40396876  0.62059147     0.17800
C2516       C  0.03665441  0.39828286  0.69232983    -0.26200
C2517       C  0.05900877  0.41052211  0.70738785     0.35800
C2518       C  0.06285022  0.42672573  0.73222265    -0.20200
C2519       C  0.04344802  0.42840745  0.74430593    -0.25500
C2520       C  0.02081734  0.41585990  0.72944494     0.27200
H2521       H  0.03424062  0.38682701  0.67202687     0.13000
N2522       N  0.07825488  0.40739267  0.69622071    -0.82700
H2523       H  0.04632031  0.44081405  0.76336257     0.17800
N2524       N  0.00097893  0.41771527  0.74172954    -0.81300
H2525       H  0.07335065  0.38954365  0.70070936     0.33500
H2526       H  0.08056245  0.41159037  0.66974109     0.37900
H2527       H  0.00603628  0.42845911  0.76240135     0.33400
H2528       H  0.99593140  0.42612976  0.72213987     0.30100
H2529       H  0.00307925  0.43414645  0.62384808     0.33400
H2530       H  0.01220139  0.43800549  0.66456510     0.30100
H2531       H  0.92405284  0.32674882  0.67063593     0.38000
H2532       H  0.94704688  0.32242269  0.68006052     0.33500
C2533       C  0.84252079  0.34970321  0.79613607    -0.20300
C2534       C  0.86244352  0.36644457  0.81365523     0.35900
C2535       C  0.86297039  0.36417269  0.84968856    -0.26300
C2536       C  0.84391211  0.34577317  0.86851974     0.02400
C2537       C  0.82371857  0.32950347  0.85117341     0.27200
C2538       C  0.82318508  0.33169543  0.81516213    -0.25400
N2539       N  0.88197471  0.38573216  0.79483039    -0.82800
H2540       H  0.87819946  0.37691267  0.86323836     0.13000
C2541       C  0.84483955  0.34431432  0.90653063     0.02300
N2542       N  0.80402643  0.31058745  0.87023157    -0.81300
H2543       H  0.80798626  0.31871455  0.80185443     0.17800
C2544       C  0.82845272  0.34751230  0.92505799    -0.26200
C2545       C  0.82840582  0.34621447  0.96105010     0.35800
C2546       C  0.84495142  0.34116521  0.97909362    -0.20200
C2547       C  0.86177846  0.33853066  0.96040936    -0.25500
C2548       C  0.86179995  0.33993566  0.92423715     0.27200
H2549       H  0.81573848  0.35125587  0.91124326     0.13000
N2550       N  0.81179249  0.35034225  0.97926865    -0.82700
H2551       H  0.87447987  0.33469108  0.97404042     0.17800
N2552       N  0.87864858  0.33651870  0.90541495    -0.81300
H2553       H  0.80076391  0.35355031  0.96220948     0.33500
H2554       H  0.82159460  0.36575191  0.99207652     0.37900
H2555       H  0.88993016  0.33352516  0.92222691     0.33400
H2556       H  0.86910106  0.32116574  0.89239241     0.30100
H2557       H  0.79054018  0.30019785  0.85366681     0.33400
H2558       H  0.81006933  0.29967638  0.88242973     0.30100
H2559       H  0.87553336  0.39624551  0.78241424     0.38000
H2560       H  0.89515700  0.39641141  0.81154773     0.33500
C2561       C  0.83636344  0.34885975  0.29655154    -0.20300
C2562       C  0.81580744  0.33439461  0.31708270     0.35900
C2563       C  0.81775318  0.33356991  0.35299067    -0.26300
C2564       C  0.83944583  0.34748947  0.36892817     0.02400
C2565       C  0.85954556  0.36305367  0.34872342     0.27200
C2566       C  0.85787917  0.36339683  0.31283982    -0.25400
N2567       N  0.79322025  0.32001526  0.30169133    -0.82800
H2568       H  0.80229740  0.32173592  0.36871855     0.13000
C2569       C  0.84086871  0.34531567  0.40682376     0.02300
N2570       N  0.88159462  0.37832772  0.36477280    -0.81300
H2571       H  0.87365582  0.37491058  0.29752013     0.17800
C2572       C  0.85732163  0.33918686  0.42187379    -0.26200
C2573       C  0.85860861  0.33618192  0.45773345     0.35800
C2574       C  0.84314682  0.33947905  0.47880342    -0.20200
C2575       C  0.82674591  0.34563786  0.46359321    -0.25500
C2576       C  0.82553208  0.34871765  0.42790143     0.27200
H2577       H  0.86886136  0.33628535  0.40551055     0.13000
N2578       N  0.87506697  0.32925086  0.47267966    -0.82700
H2579       H  0.81498434  0.34840770  0.47969137     0.17800
N2580       N  0.80891365  0.35545496  0.41295452    -0.81300
H2581       H  0.88521179  0.32769718  0.45357402     0.33500
H2582       H  0.86511743  0.31241157  0.48495323     0.37900
H2583       H  0.79880680  0.35709250  0.43203401     0.33400
H2584       H  0.81872759  0.37219532  0.40034753     0.30100
H2585       H  0.89472661  0.38864336  0.34627826     0.33400
H2586       H  0.87880153  0.39000293  0.37849909     0.30100
H2587       H  0.78755621  0.33143496  0.29022219     0.38000
H2588       H  0.78040161  0.30943522  0.32043958     0.33500
C2589       C  0.88409766  0.27755969  0.07545206    -0.20300
C2590       C  0.89452666  0.28505987  0.04209873     0.35900
C2591       C  0.90569350  0.27360769  0.02801769    -0.26300
C2592       C  0.90596830  0.25418397  0.04558401     0.02400
C2593       C  0.89453861  0.24581382  0.07797656     0.27200
C2594       C  0.88387759  0.25765927  0.09268923    -0.25400
N2595       N  0.89353225  0.30409705  0.02230113    -0.82800
H2596       H  0.91427358  0.27987378  0.00300869     0.13000
C2597       C  0.91849242  0.24303761  0.02954720     0.02300
N2598       N  0.89376147  0.22528789  0.09570883    -0.81300
H2599       H  0.87563775  0.25147764  0.11791005     0.17800
C2600       C  0.93784843  0.24270843  0.04626856    -0.26200
C2601       C  0.95117938  0.23383228  0.03092235     0.35800
C2602       C  0.94477455  0.22466382  0.99804790    -0.20200
C2603       C  0.92506306  0.22468080  0.98172418    -0.25500
C2604       C  0.91197792  0.23382375  0.99700262     0.27200
H2605       H  0.94292991  0.24995121  0.07115608     0.13000
N2606       N  0.97081385  0.23371116  0.04908893    -0.82700
H2607       H  0.91994718  0.21773929  0.95666677     0.17800
N2608       N  0.89203447  0.23378084  0.97960301    -0.81300
H2609       H  0.97148373  0.23872246  0.07410822     0.33500
H2610       H  0.98645388  0.24677345  0.03691172     0.37900
H2611       H  0.88958873  0.22651965  0.95584354     0.33400
H2612       H  0.87680279  0.22270717  0.99440027     0.30100
H2613       H  0.88462500  0.22132026  0.11912422     0.33400
H2614       H  0.88390260  0.21098131  0.08077592     0.30100
H2615       H  0.87566261  0.29851145  0.01684391     0.38000
H2616       H  0.90227989  0.30757011  0.99864321     0.33500
C2617       C  0.71716875  0.44954275  0.12917071    -0.20300
C2618       C  0.73208613  0.45485940  0.15810770     0.35900
C2619       C  0.74290040  0.44119510  0.16737928    -0.26300
C2620       C  0.74045143  0.42322460  0.14729369     0.02400
C2621       C  0.72629934  0.41835156  0.11757317     0.27200
C2622       C  0.71450317  0.43144652  0.10897073    -0.25400
N2623       N  0.73646048  0.47442744  0.17775408    -0.82800
H2624       H  0.75398704  0.44505057  0.18992552     0.13000
C2625       C  0.75496007  0.41161327  0.15620590     0.02300
N2626       N  0.72415308  0.40034138  0.09622166    -0.81300
H2627       H  0.70293280  0.42728177  0.08695414     0.17800
C2628       C  0.74404411  0.38715470  0.16427428    -0.26200
C2629       C  0.75777055  0.37590391  0.17172013     0.35800
C2630       C  0.78289501  0.38954388  0.17101556    -0.20200
C2631       C  0.79354915  0.41418806  0.16505346    -0.25500
C2632       C  0.77993067  0.42529126  0.15716094     0.27200
H2633       H  0.72481559  0.37681185  0.16413232     0.13000
N2634       N  0.74633252  0.35065299  0.17782100    -0.82700
H2635       H  0.81277067  0.42474777  0.16455682     0.17800
N2636       N  0.79140515  0.45036852  0.14880089    -0.81300
H2637       H  0.72789565  0.34321371  0.17552309     0.33500
H2638       H  0.74943923  0.34696116  0.20333347     0.37900
H2639       H  0.80986788  0.45788461  0.15070359     0.33400
H2640       H  0.78785295  0.45306203  0.12309321     0.30100
H2641       H  0.71311333  0.39897477  0.07543701     0.33400
H2642       H  0.74100404  0.40571822  0.08591358     0.30100
H2643       H  0.74552450  0.48985092  0.16173850     0.38000
H2644       H  0.74769487  0.47586290  0.19830523     0.33500
C2645       C  0.72809075  0.28702676  0.14061140    -0.20300
C2646       C  0.71253629  0.27692189  0.11296559     0.35900
C2647       C  0.68771671  0.26541033  0.11877316    -0.26300
C2648       C  0.67811662  0.26338240  0.15152380     0.02400
C2649       C  0.69336704  0.27360944  0.17888680     0.27200
C2650       C  0.71801760  0.28523902  0.17323047    -0.25400
N2651       N  0.72174080  0.27817435  0.07927214    -0.82800
H2652       H  0.67572489  0.25742672  0.09784124     0.13000
C2653       C  0.65203846  0.24947934  0.15708529     0.02300
N2654       N  0.68372685  0.27201613  0.21241078    -0.81300
H2655       H  0.72936772  0.29287776  0.19486365     0.17800
C2656       C  0.64207916  0.22635145  0.17220378    -0.26200
C2657       C  0.61729111  0.21167684  0.17422737     0.35800
C2658       C  0.60222212  0.22027266  0.16120834    -0.20200
C2659       C  0.61226887  0.24376839  0.14738596    -0.25500
C2660       C  0.63704807  0.25860674  0.14575312     0.27200
H2661       H  0.65361300  0.21942143  0.18140707     0.13000
N2662       N  0.60745568  0.18794771  0.18896659    -0.82700
H2663       H  0.60082678  0.25012411  0.13586995     0.17800
N2664       N  0.64707943  0.28265823  0.13183210    -0.81300
H2665       H  0.61339512  0.18860045  0.21422252     0.33500
H2666       H  0.61418675  0.17922139  0.17524174     0.37900
H2667       H  0.63359979  0.28657255  0.12449284     0.33400
H2668       H  0.65626811  0.29354019  0.15156696     0.30100
H2669       H  0.69736704  0.28022404  0.22996794     0.33400
H2670       H  0.67445638  0.28150347  0.21070012     0.30100
H2671       H  0.72973100  0.26748828  0.08047565     0.38000
H2672       H  0.70789683  0.27090821  0.06174241     0.33500
C2673       C  0.94786114  0.36692396  0.15733097    -0.20300
C2674       C  0.96689813  0.38746602  0.14163431     0.35900
C2675       C  0.98979898  0.39639676  0.15571644    -0.26300
C2676       C  0.99389247  0.38533873  0.18537628     0.02400
C2677       C  0.97517354  0.36417385  0.20002203     0.27200
C2678       C  0.95235608  0.35516820  0.18586513    -0.25400
N2679       N  0.96254854  0.40022614  0.11337192    -0.82800
H2680       H  0.00430881  0.41271703  0.14457467     0.13000
C2681       C  0.01753742  0.39705884  0.20184949     0.02300
N2682       N  0.97929379  0.35238473  0.22982369    -0.81300
H2683       H  0.93767796  0.33950809  0.19821660     0.17800
C2684       C  0.01992745  0.40692450  0.23358176    -0.26200
C2685       C  0.04257408  0.42169487  0.24697895     0.35800
C2686       C  0.06302806  0.42653985  0.22811237    -0.20200
C2687       C  0.06038272  0.41465630  0.19818364    -0.25500
C2688       C  0.03790863  0.40021246  0.18469358     0.27200
H2689       H  0.00411867  0.40416418  0.24690158     0.13000
N2690       N  0.04480037  0.43305398  0.27811456    -0.82700
H2691       H  0.07606784  0.41784512  0.18403647     0.17800
N2692       N  0.03569162  0.38956798  0.15284473    -0.81300
H2693       H  0.02800970  0.42829325  0.28806402     0.33500
H2694       H  0.05275200  0.42654600  0.29624307     0.37900
H2695       H  0.05243992  0.39395566  0.14312233     0.33400
H2696       H  0.02662235  0.37125545  0.15808276     0.30100
H2697       H  0.96359095  0.33716752  0.23778144     0.33400
H2698       H  0.99118682  0.34680837  0.22264169     0.30100
H2699       H  0.95738941  0.38963114  0.09253609     0.38000
H2700       H  0.97822744  0.41560835  0.10585283     0.33500
loop_ 
_geom_bond_atom_site_label_1 
_geom_bond_atom_site_label_2 
_geom_bond_distance 
_geom_bond_site_symmetry_2 
_ccdc_geom_bond_type 
Zr1           O2   2.438       .  S
Zr1           O3   2.447       .  S
Zr1           O4   2.433       .  S
Zr1           O7   2.393       .  S
Zr1           O9   2.371       .  S
Zr1          O10   2.380       .  S
Zr1          O11   2.403       .  S
Zr1          O12   2.404       .  S
O2           H58   0.990       .  S
O2           H66   0.990       .  S
O3           C23   1.286       .  A
O4           C25   1.283       .  A
O5          Zr15   2.468       .  S
O5           C24   1.290       .  A
O6          Zr14   2.418       .  S
O6           C25   1.282       .  A
O7           C24   1.279       .  A
O8          Zr16   2.411       .  S
O8           C23   1.282       .  A
O9          Zr14   2.380       .  S
O9          Zr16   2.374       .  S
O10         Zr15   2.372       .  S
O10         Zr16   2.381       .  S
O10          H45   0.965       .  S
O11         Zr14   2.388       .  S
O11         Zr31   2.415       .  S
O11          H48   0.966       .  S
O12         Zr15   2.383       .  S
O12         Zr31   2.401       .  S
Zr13         O38   2.439       .  S
Zr13         O32   2.422       .  S
Zr13         O40   2.457       .  S
Zr13         O28   2.479       .  S
Zr13         O19   2.407       .  S
Zr13         O20   2.406       .  S
Zr13         O21   2.371       .  S
Zr13         O22   2.394       .  S
Zr14         O33   2.440       .  S
Zr14         O26   2.437       .  S
Zr14         O27   2.389       .  S
Zr14         O20   2.397       .  S
Zr14         O21   2.389       .  S
Zr15         O17   2.435       .  S
Zr15         O39   2.438       .  S
Zr15         O41   2.413       .  S
Zr15         O19   2.408       .  S
Zr15         O22   2.394       .  S
Zr16         O42   2.436       .  S
Zr16         O43   2.435       .  S
Zr16         O18   2.438       .  S
Zr16         O19   2.390       .  S
Zr16         O20   2.400       .  S
O17          H54   0.990       .  S
O18          H49   0.990       .  S
O18          H63   0.990       .  S
O20          H46   0.966       .  S
O21         Zr31   2.365       .  S
O22         Zr31   2.375       .  S
O22          H47   0.966       .  S
C23        C2630   1.483       .  S
C24        C2645   1.500       .  S
C25        C2561   1.489       .  S
O26          H62   0.990       .  S
O27          C29   1.276       .  A
O28          C29   1.293       .  A
C29        C2673   1.481       .  S
O30         Zr31   2.438       .  S
O30          H59   0.991       .  S
Zr31         O34   2.437       .  S
Zr31         O35   2.438       .  S
Zr31         O36   2.455       .  S
O32          C37   1.283       .  A
O33          H50   0.990       .  S
O33          H65   0.990       .  S
O34          H51   0.990       .  S
O35          H55   0.990       .  S
O35          H64   0.990       .  S
O36          C37   1.289       .  A
C37        C2589   1.497       .  S
O38          H57   0.990       .  S
O38          H61   0.990       .  S
O39          H53   0.990       .  S
O39          H60   0.990       .  S
O40          C44   1.290       .  A
O41          C44   1.282       .  A
O42          H52   0.990       .  S
O43          H56   0.990       .  S
C44        C2546   1.486   1_554  S
Zr67         O68   2.441       .  S
Zr67         O69   2.459       .  S
Zr67         O70   2.446       .  S
Zr67         O73   2.404       .  S
Zr67         O75   2.375       .  S
Zr67         O76   2.381       .  S
Zr67         O77   2.410       .  S
Zr67         O78   2.413       .  S
O68         H124   0.990       .  S
O68         H132   0.990       .  S
O69          C89   1.289       .  A
O70          C91   1.286       .  A
O71         Zr81   2.460       .  S
O71          C90   1.289       .  A
O72         Zr80   2.407       .  S
O72          C91   1.279       .  A
O73          C90   1.280       .  A
O74         Zr82   2.406       .  S
O74          C89   1.280       .  A
O75         Zr80   2.385       .  S
O75         Zr82   2.378       .  S
O76         Zr81   2.368       .  S
O76         Zr82   2.384       .  S
O76         H111   0.965       .  S
O77         Zr80   2.388       .  S
O77         Zr97   2.416       .  S
O77         H114   0.966       .  S
O78         Zr81   2.384       .  S
O78         Zr97   2.407       .  S
Zr79        O104   2.443       .  S
Zr79         O98   2.414       .  S
Zr79        O106   2.443       .  S
Zr79         O94   2.476       .  S
Zr79         O85   2.403       .  S
Zr79         O86   2.400       .  S
Zr79         O87   2.370       .  S
Zr79         O88   2.397       .  S
Zr80         O99   2.439       .  S
Zr80         O92   2.435       .  S
Zr80         O93   2.392       .  S
Zr80         O86   2.389       .  S
Zr80         O87   2.384       .  S
Zr81         O83   2.435       .  S
Zr81        O105   2.439       .  S
Zr81        O107   2.407       .  S
Zr81         O85   2.404       .  S
Zr81         O88   2.389       .  S
Zr82        O108   2.435       .  S
Zr82        O109   2.435       .  S
Zr82         O84   2.437       .  S
Zr82         O85   2.384       .  S
Zr82         O86   2.394       .  S
O83         H120   0.990       .  S
O84         H115   0.990       .  S
O84         H129   0.990       .  S
O86         H112   0.966       .  S
O87         Zr97   2.367       .  S
O88         Zr97   2.371       .  S
O88         H113   0.966       .  S
C89        C2449   1.480       .  S
C90        C2490   1.489       .  S
C91        C2533   1.481       .  S
O92         H128   0.990       .  S
O93          C95   1.277       .  A
O94          C95   1.292       .  A
C95        C2505   1.476       .  S
O96         Zr97   2.437       .  S
O96         H125   0.990       .  S
Zr97        O100   2.437       .  S
Zr97        O101   2.438       .  S
Zr97        O102   2.463       .  S
O98         C103   1.281       .  A
O99         H116   0.990       .  S
O99         H131   0.990       .  S
O100        H117   0.990       .  S
O101        H121   0.990       .  S
O101        H130   0.990       .  S
O102        C103   1.290       .  A
C103       C2421   1.502       .  S
O104        H123   0.990       .  S
O104        H127   0.990       .  S
O105        H119   0.990       .  S
O105        H126   0.990       .  S
O106        C110   1.287       .  A
O107        C110   1.282       .  A
O108        H118   0.990       .  S
O109        H122   0.990       .  S
C110       C2574   1.477       .  S
Zr133       O134   2.440       .  S
Zr133       O135   2.443       .  S
Zr133       O136   2.427       .  S
Zr133       O139   2.367       .  S
Zr133       O141   2.369       .  S
Zr133       O142   2.376       .  S
Zr133       O143   2.395       .  S
Zr133       O144   2.406       .  S
O134        H190   0.990       .  S
O134        H198   0.990       .  S
O135        C155   1.286       .  A
O136        C157   1.282       .  A
O137       Zr147   2.470       .  S
O137        C156   1.292       .  A
O138       Zr146   2.409       .  S
O138        C157   1.280       .  A
O139        C156   1.272       .  A
O140       Zr148   2.432       .  S
O140        C155   1.283       .  A
O141       Zr146   2.388       .  S
O141       Zr148   2.383       .  S
O142       Zr147   2.364       .  S
O142       Zr148   2.373       .  S
O142        H177   0.965       .  S
O143       Zr146   2.384       .  S
O143       Zr163   2.407       .  S
O143        H180   0.966       .  S
O144       Zr147   2.384       .  S
O144       Zr163   2.402       .  S
Zr145       O170   2.441       .  S
Zr145       O164   2.416       .  S
Zr145       O172   2.427       .  S
Zr145       O160   2.459       .  S
Zr145       O151   2.404       .  S
Zr145       O152   2.401       .  S
Zr145       O153   2.374       .  S
Zr145       O154   2.390       .  S
Zr146       O165   2.439       .  S
Zr146       O158   2.434       .  S
Zr146       O159   2.390       .  S
Zr146       O152   2.394       .  S
Zr146       O153   2.387       .  S
Zr147       O149   2.436       .  S
Zr147       O171   2.437       .  S
Zr147       O173   2.425   1_554  S
Zr147       O151   2.406       .  S
Zr147       O154   2.392       .  S
Zr148       O174   2.437       .  S
Zr148       O175   2.437       .  S
Zr148       O150   2.437       .  S
Zr148       O151   2.397       .  S
Zr148       O152   2.402       .  S
O149        H186   0.990       .  S
O150        H181   0.990       .  S
O150        H195   0.990       .  S
O152        H178   0.966       .  S
O153       Zr163   2.365       .  S
O154       Zr163   2.373       .  S
O154        H179   0.966       .  S
C155       C2658   1.478       .  S
C156       C2350   1.485       .  S
C157       C2322   1.475       .  S
O158        H194   0.990       .  S
O159        C161   1.277       .  A
O160        C161   1.289       .  A
C161       C2365   1.470       .  S
O162       Zr163   2.439       .  S
O162        H191   0.990       .  S
Zr163       O166   2.437       .  S
Zr163       O167   2.440       .  S
Zr163       O168   2.456       .  S
O164        C169   1.282       .  A
O165        H182   0.990       .  S
O165        H197   0.990       .  S
O166        H183   0.990       .  S
O167        H187   0.990       .  S
O167        H196   0.990       .  S
O168        C169   1.288       .  A
C169       C2393   1.485       .  S
O170        H189   0.990       .  S
O170        H193   0.990       .  S
O171        H185   0.990       .  S
O171        H192   0.990       .  S
O172        C176   1.285   1_554  A
O173        C176   1.284       .  A
O174        H184   0.990       .  S
O175        H188   0.990       .  S
C176       C2281   1.484       .  S
Zr199       O200   2.442       .  S
Zr199       O201   2.443       .  S
Zr199       O202   2.418       .  S
Zr199       O205   2.382       .  S
Zr199       O207   2.369       .  S
Zr199       O208   2.378       .  S
Zr199       O209   2.403       .  S
Zr199       O210   2.405       .  S
O200        H256   0.990       .  S
O200        H264   0.990       .  S
O201        C221   1.286       .  A
O202        C223   1.280       .  A
O203       Zr213   2.471       .  S
O203        C222   1.291       .  A
O204       Zr212   2.418       .  S
O204        C223   1.279       .  A
O205        C222   1.276       .  A
O206       Zr214   2.414       .  S
O206        C221   1.281       .  A
O207       Zr212   2.375       .  S
O207       Zr214   2.377       .  S
O208       Zr213   2.382       .  S
O208       Zr214   2.384       .  S
O208        H243   0.966       .  S
O209       Zr212   2.395       .  S
O209       Zr229   2.421       .  S
O209        H246   0.966       .  S
O210       Zr213   2.390       .  S
O210       Zr229   2.403       .  S
Zr211       O236   2.436       .  S
Zr211       O230   2.388       .  S
Zr211       O238   2.422       .  S
Zr211       O226   2.457       .  S
Zr211       O217   2.396       .  S
Zr211       O218   2.399       .  S
Zr211       O219   2.361       .  S
Zr211       O220   2.395       .  S
Zr212       O231   2.442       .  S
Zr212       O224   2.435       .  S
Zr212       O225   2.388       .  S
Zr212       O218   2.393       .  S
Zr212       O219   2.379       .  S
Zr213       O215   2.435       .  S
Zr213       O237   2.438       .  S
Zr213       O239   2.440       .  S
Zr213       O217   2.402       .  S
Zr213       O220   2.391       .  S
Zr214       O240   2.437       .  S
Zr214       O241   2.436       .  S
Zr214       O216   2.437       .  S
Zr214       O217   2.388       .  S
Zr214       O218   2.402       .  S
O215        H252   0.990       .  S
O216        H247   0.990       .  S
O216        H261   0.990       .  S
O218        H244   0.966       .  S
O219       Zr229   2.349       .  S
O220       Zr229   2.375       .  S
O220        H245   0.966       .  S
C221       C2477   1.475       .  S
C222       C2210   1.478       .  S
C223       C2294   1.472       .  S
O224        H260   0.990       .  S
O225        C227   1.277       .  A
O226        C227   1.288       .  A
C227       C2238   1.470       .  S
O228       Zr229   2.439       .  S
O228        H257   0.991       .  S
Zr229       O232   2.439       .  S
Zr229       O233   2.438       .  S
Zr229       O234   2.473       .  S
O230        C235   1.277       .  A
O231        H248   0.990       .  S
O231        H263   0.990       .  S
O232        H249   0.990       .  S
O233        H253   0.990       .  S
O233        H262   0.990       .  S
O234        C235   1.292       .  A
C235       C2266   1.482       .  S
O236        H255   0.990       .  S
O236        H259   0.990       .  S
O237        H251   0.990       .  S
O237        H258   0.990       .  S
O238        C242   1.285       .  A
O239        C242   1.287       .  A
O240        H250   0.990       .  S
O241        H254   0.990       .  S
C242       C2309   1.474       .  S
Zr265       O266   2.438       .  S
Zr265       O267   2.442       .  S
Zr265       O268   2.443       .  S
Zr265       O271   2.384       .  S
Zr265       O273   2.371       .  S
Zr265       O274   2.382       .  S
Zr265       O275   2.401       .  S
Zr265       O276   2.407       .  S
O266        H322   0.990       .  S
O266        H330   0.990       .  S
O267        C287   1.286       .  A
O268        C289   1.284       .  A
O269       Zr279   2.467       .  S
O269        C288   1.290       .  A
O270       Zr278   2.426       .  S
O270        C289   1.283       .  A
O271        C288   1.277       .  A
O272       Zr280   2.408       .  S
O272        C287   1.281       .  A
O273       Zr278   2.376       .  S
O273       Zr280   2.377       .  S
O274       Zr279   2.365       .  S
O274       Zr280   2.384       .  S
O274        H309   0.971       .  S
O275       Zr278   2.387       .  S
O275       Zr295   2.418       .  S
O275        H312   0.966       .  S
O276       Zr279   2.384       .  S
O276       Zr295   2.396       .  S
Zr277       O302   2.437       .  S
Zr277       O296   2.405       .  S
Zr277       O304   2.457       .  S
Zr277       O292   2.470       .  S
Zr277       O283   2.394       .  S
Zr277       O284   2.409       .  S
Zr277       O285   2.367       .  S
Zr277       O286   2.396       .  S
Zr278       O297   2.439       .  S
Zr278       O290   2.436       .  S
Zr278       O291   2.388       .  S
Zr278       O284   2.398       .  S
Zr278       O285   2.382       .  S
Zr279       O281   2.434       .  S
Zr279       O303   2.439       .  S
Zr279       O305   2.421       .  S
Zr279       O283   2.400       .  S
Zr279       O286   2.387       .  S
Zr280       O306   2.437       .  S
Zr280       O307   2.437       .  S
Zr280       O282   2.439       .  S
Zr280       O283   2.386       .  S
Zr280       O284   2.401       .  S
O281        H318   0.990       .  S
O282        H313   0.990       .  S
O282        H327   0.990       .  S
O284        H310   0.967       .  S
O285       Zr295   2.355       .  S
O286       Zr295   2.378       .  S
O286        H311   0.966       .  S
C287       C2337   1.472       .  S
C288       C2617   1.476       .  S
C289       C2113   1.494       .  S
O290        H326   0.990       .  S
O291        C293   1.277       .  A
O292        C293   1.291       .  A
C293       C2141   1.471       .  S
O294       Zr295   2.438       .  S
O294        H323   0.990       .  S
Zr295       O298   2.438       .  S
Zr295       O299   2.438       .  S
Zr295       O300   2.456       .  S
O296        C301   1.280       .  A
O297        H314   0.990       .  S
O297        H329   0.990       .  S
O298        H315   0.990       .  S
O299        H319   0.990       .  S
O299        H328   0.990       .  S
O300        C301   1.289       .  A
C301       C2169   1.473       .  S
O302        H321   0.990       .  S
O302        H325   0.990       .  S
O303        H317   0.990       .  S
O303        H324   0.990       .  S
O304        C308   1.290   1_554  A
O305        C308   1.284   1_554  A
O306        H316   0.991       .  S
O307        H320   0.990       .  S
C308       C2098   1.483       .  S
Zr331       O332   2.442       .  S
Zr331       O333   2.473       .  S
Zr331       O334   2.453       .  S
Zr331       O337   2.405       .  S
Zr331       O339   2.375       .  S
Zr331       O340   2.381       .  S
Zr331       O341   2.417       .  S
Zr331       O342   2.413       .  S
O332        H388   0.990       .  S
O332        H396   0.990       .  S
O333        C353   1.290       .  A
O334        C355   1.285       .  A
O335       Zr345   2.454       .  S
O335        C354   1.287       .  A
O336       Zr344   2.406       .  S
O336        C355   1.279       .  A
O337        C354   1.280       .  A
O338       Zr346   2.397       .  S
O338        C353   1.278       .  A
O339       Zr344   2.390       .  S
O339       Zr346   2.380       .  S
O340       Zr345   2.374       .  S
O340       Zr346   2.386       .  S
O340        H375   0.964       .  S
O341       Zr344   2.393       .  S
O341       Zr361   2.417       .  S
O341        H378   0.966       .  S
O342       Zr345   2.385       .  S
O342       Zr361   2.403       .  S
Zr343       O368   2.445       .  S
Zr343       O362   2.412       .  S
Zr343       O370   2.451       .  S
Zr343       O358   2.467       .  S
Zr343       O349   2.393       .  S
Zr343       O350   2.404       .  S
Zr343       O351   2.375       .  S
Zr343       O352   2.396       .  S
Zr344       O363   2.440       .  S
Zr344       O356   2.434       .  S
Zr344       O357   2.394       .  S
Zr344       O350   2.392       .  S
Zr344       O351   2.383       .  S
Zr345       O347   2.438       .  S
Zr345       O369   2.440       .  S
Zr345       O371   2.408       .  S
Zr345       O349   2.400       .  S
Zr345       O352   2.393       .  S
Zr346       O372   2.436       .  S
Zr346       O373   2.435       .  S
Zr346       O348   2.437       .  S
Zr346       O349   2.383       .  S
Zr346       O350   2.392       .  S
O347        H384   0.990       .  S
O348        H379   0.990       .  S
O348        H393   0.990       .  S
O350        H376   0.966       .  S
O351       Zr361   2.358       .  S
O352       Zr361   2.377       .  S
O352        H377   0.966       .  S
C353       C2197   1.484       .  S
C354       C2462   1.480       .  S
C355       C2085   1.488       .  S
O356        H392   0.990       .  S
O357        C359   1.278       .  A
O358        C359   1.290       .  A
C359       C2029   1.471       .  S
O360       Zr361   2.438       .  S
O360        H389   0.991       .  S
Zr361       O364   2.438       .  S
Zr361       O365   2.438       .  S
Zr361       O366   2.458       .  S
O362        C367   1.281       .  A
O363        H380   0.990       .  S
O363        H395   0.990       .  S
O364        H381   0.990       .  S
O365        H385   0.990       .  S
O365        H394   0.990       .  S
O366        C367   1.289       .  A
C367       C2057   1.482       .  S
O368        H387   0.990       .  S
O368        H391   0.990       .  S
O369        H383   0.990       .  S
O369        H390   0.990       .  S
O370        C374   1.289       .  A
O371        C374   1.282       .  A
O372        H382   0.990       .  S
O373        H386   0.990       .  S
C374       C2126   1.482       .  S
Zr397       O398   2.442       .  S
Zr397       O399   2.448       .  S
Zr397       O400   2.419       .  S
Zr397       O403   2.378       .  S
Zr397       O405   2.366       .  S
Zr397       O406   2.375       .  S
Zr397       O407   2.402       .  S
Zr397       O408   2.404       .  S
O398        H454   0.991       .  S
O398        H462   0.990       .  S
O399        C419   1.286       .  A
O400        C421   1.280       .  A
O401       Zr411   2.459       .  S
O401        C420   1.288       .  A
O402       Zr410   2.406       .  S
O402        C421   1.279       .  A
O403        C420   1.276       .  A
O404       Zr412   2.423       .  S
O404        C419   1.283       .  A
O405       Zr410   2.382       .  S
O405       Zr412   2.377       .  S
O406       Zr411   2.380       .  S
O406       Zr412   2.380       .  S
O406        H441   0.965       .  S
O407       Zr410   2.387       .  S
O407       Zr427   2.414       .  S
O407        H444   0.966       .  S
O408       Zr411   2.387       .  S
O408       Zr427   2.399       .  S
Zr409       O434   2.441       .  S
Zr409       O428   2.412       .  S
Zr409       O436   2.433       .  S
Zr409       O424   2.464       .  S
Zr409       O415   2.406       .  S
Zr409       O416   2.403       .  S
Zr409       O417   2.375       .  S
Zr409       O418   2.391       .  S
Zr410       O429   2.439       .  S
Zr410       O422   2.435       .  S
Zr410       O423   2.382       .  S
Zr410       O416   2.390       .  S
Zr410       O417   2.387       .  S
Zr411       O413   2.434       .  S
Zr411       O435   2.438       .  S
Zr411       O437   2.423       .  S
Zr411       O415   2.405       .  S
Zr411       O418   2.390       .  S
Zr412       O438   2.434       .  S
Zr412       O439   2.435       .  S
Zr412       O414   2.437       .  S
Zr412       O415   2.394       .  S
Zr412       O416   2.402       .  S
O413        H450   0.990       .  S
O414        H445   0.991       .  S
O414        H459   0.990       .  S
O416        H442   0.966       .  S
O417       Zr427   2.366       .  S
O418       Zr427   2.372       .  S
O418        H443   0.966       .  S
C419       C2014   1.490       .  S
C420       C1986   1.485       .  S
C421       C1917   1.475       .  S
O422        H458   0.990       .  S
O423        C425   1.276       .  A
O424        C425   1.289       .  A
C425       C2378   1.474       .  S
O426       Zr427   2.439       .  S
O426        H455   0.991       .  S
Zr427       O430   2.438       .  S
Zr427       O431   2.439       .  S
Zr427       O432   2.455       .  S
O428        C433   1.282       .  A
O429        H446   0.990       .  S
O429        H461   0.991       .  S
O430        H447   0.990       .  S
O431        H451   0.990       .  S
O431        H460   0.990       .  S
O432        C433   1.288       .  A
C433       C1945   1.492       .  S
O434        H453   0.990       .  S
O434        H457   0.990       .  S
O435        H449   0.990       .  S
O435        H456   0.990       .  S
O436        C440   1.286       .  A
O437        C440   1.284       .  A
O438        H448   0.990       .  S
O439        H452   0.990       .  S
C440       C1889   1.481       .  S
Zr463       O464   2.442       .  S
Zr463       O465   2.482       .  S
Zr463       O466   2.430       .  S
Zr463       O469   2.392       .  S
Zr463       O471   2.372       .  S
Zr463       O472   2.373       .  S
Zr463       O473   2.414       .  S
Zr463       O474   2.416       .  S
O464        H520   0.990       .  S
O464        H528   0.991       .  S
O465        C485   1.293       .  A
O466        C487   1.284       .  A
O467       Zr477   2.460       .  S
O467        C486   1.288       .  A
O468       Zr476   2.423       .  S
O468        C487   1.282       .  A
O469        C486   1.279       .  A
O470       Zr478   2.409       .  S
O470        C485   1.281       .  A
O471       Zr476   2.391       .  S
O471       Zr478   2.379       .  S
O472       Zr477   2.376       .  S
O472       Zr478   2.386       .  S
O472        H507   0.965       .  S
O473       Zr476   2.385       .  S
O473       Zr493   2.419       .  S
O473        H510   0.966       .  S
O474       Zr477   2.379       .  S
O474       Zr493   2.415       .  S
Zr475       O500   2.441       .  S
Zr475       O494   2.412       .  S
Zr475       O502   2.422       .  S
Zr475       O490   2.450       .  S
Zr475       O481   2.389       .  S
Zr475       O482   2.398       .  S
Zr475       O483   2.369       .  S
Zr475       O484   2.391       .  S
Zr476       O495   2.439       .  S
Zr476       O488   2.435       .  S
Zr476       O489   2.397       .  S
Zr476       O482   2.395       .  S
Zr476       O483   2.383       .  S
Zr477       O479   2.435       .  S
Zr477       O501   2.438       .  S
Zr477       O503   2.408       .  S
Zr477       O481   2.403       .  S
Zr477       O484   2.393       .  S
Zr478       O504   2.437       .  S
Zr478       O505   2.438       .  S
Zr478       O480   2.438       .  S
Zr478       O481   2.384       .  S
Zr478       O482   2.397       .  S
O479        H516   0.990       .  S
O480        H511   0.990       .  S
O480        H525   0.990       .  S
O482        H508   0.966       .  S
O483       Zr493   2.357       .  S
O484       Zr493   2.368       .  S
O484        H509   0.966       .  S
C485       C1861   1.495       .  S
C486       C1833   1.486       .  S
C487       C1902   1.480       .  S
O488        H524   0.990       .  S
O489        C491   1.280       .  A
O490        C491   1.287       .  A
C491       C2225   1.470       .  S
O492       Zr493   2.437       .  S
O492        H521   0.991       .  S
Zr493       O496   2.437       .  S
Zr493       O497   2.439       .  S
Zr493       O498   2.473       .  S
O494        C499   1.281       .  A
O495        H512   0.990       .  S
O495        H527   0.990       .  S
O496        H513   0.990       .  S
O497        H517   0.990       .  S
O497        H526   0.990       .  S
O498        C499   1.291       .  A
C499       C1818   1.493       .  S
O500        H519   0.991       .  S
O500        H523   0.990       .  S
O501        H515   0.990       .  S
O501        H522   0.990       .  S
O502        C506   1.285       .  A
O503        C506   1.281       .  A
O504        H514   0.990       .  S
O505        H518   0.990       .  S
C506       C1930   1.468       .  S
Zr529       O530   2.437       .  S
Zr529       O531   2.447       .  S
Zr529       O532   2.451       .  S
Zr529       O535   2.396       .  S
Zr529       O537   2.372       .  S
Zr529       O538   2.382       .  S
Zr529       O539   2.407       .  S
Zr529       O540   2.411       .  S
O530        H586   0.990       .  S
O530        H594   0.990       .  S
O531        C551   1.285       .  A
O532        C553   1.285       .  A
O533       Zr543   2.469       .  S
O533        C552   1.291       .  A
O534       Zr542   2.414       .  S
O534        C553   1.281       .  A
O535        C552   1.278       .  A
O536       Zr544   2.399       .  S
O536        C551   1.278       .  A
O537       Zr542   2.384       .  S
O537       Zr544   2.381       .  S
O538       Zr543   2.378       .  S
O538       Zr544   2.385       .  S
O538        H573   0.965       .  S
O539       Zr542   2.390       .  S
O539       Zr559   2.420       .  S
O539        H576   0.966       .  S
O540       Zr543   2.386       .  S
O540       Zr559   2.404       .  S
Zr541       O566   2.441       .  S
Zr541       O560   2.409       .  S
Zr541       O568   2.447       .  S
Zr541       O556   2.466       .  S
Zr541       O547   2.399       .  S
Zr541       O548   2.407       .  S
Zr541       O549   2.376       .  S
Zr541       O550   2.395       .  S
Zr542       O561   2.439       .  S
Zr542       O554   2.435       .  S
Zr542       O555   2.398       .  S
Zr542       O548   2.395       .  S
Zr542       O549   2.383       .  S
Zr543       O545   2.435       .  S
Zr543       O567   2.436       .  S
Zr543       O569   2.429       .  S
Zr543       O547   2.405       .  S
Zr543       O550   2.391       .  S
Zr544       O570   2.438       .  S
Zr544       O571   2.436       .  S
Zr544       O546   2.437       .  S
Zr544       O547   2.384       .  S
Zr544       O548   2.399       .  S
O545        H582   0.990       .  S
O546        H577   0.990       .  S
O546        H591   0.990       .  S
O548        H574   0.966       .  S
O549       Zr559   2.358       .  S
O550       Zr559   2.375       .  S
O550        H575   0.966       .  S
C551       C1973   1.470       .  S
C552       C1762   1.492       .  S
C553       C1721   1.494       .  S
O554        H590   0.990       .  S
O555        C557   1.278       .  A
O556        C557   1.290       .  A
C557       C2686   1.484       .  S
O558       Zr559   2.439       .  S
O558        H587   0.990       .  S
Zr559       O562   2.437       .  S
Zr559       O563   2.438       .  S
Zr559       O564   2.470       .  S
O560        C565   1.281       .  A
O561        H578   0.990       .  S
O561        H593   0.990       .  S
O562        H579   0.990       .  S
O563        H583   0.990       .  S
O563        H592   0.990       .  S
O564        C565   1.292       .  A
C565       C1790   1.489       .  S
O566        H585   0.990       .  S
O566        H589   0.990       .  S
O567        H581   0.990       .  S
O567        H588   0.990       .  S
O568        C572   1.288       .  A
O569        C572   1.286       .  A
O570        H580   0.990       .  S
O571        H584   0.990       .  S
C572       C1706   1.488       .  S
Zr595       O596   2.434       .  S
Zr595       O597   2.453       .  S
Zr595       O598   2.439       .  S
Zr595       O601   2.374       .  S
Zr595       O603   2.371       .  S
Zr595       O604   2.378       .  S
Zr595       O605   2.402       .  S
Zr595       O606   2.414       .  S
O596        H652   0.989       .  S
O596        H660   0.990       .  S
O597        C617   1.288       .  A
O598        C619   1.285       .  A
O599       Zr609   2.492       .  S
O599        C618   1.295       .  A
O600       Zr608   2.421       .  S
O600        C619   1.283       .  A
O601        C618   1.273       .  A
O602       Zr610   2.399       .  S
O602        C617   1.279       .  A
O603       Zr608   2.381       .  S
O603       Zr610   2.381       .  S
O604       Zr609   2.367       .  S
O604       Zr610   2.380       .  S
O604        H639   0.965       .  S
O605       Zr608   2.379       .  S
O605       Zr625   2.418       .  S
O605        H642   0.966       .  S
O606       Zr609   2.378       .  S
O606       Zr625   2.411       .  S
Zr607       O632   2.441       .  S
Zr607       O626   2.403       .  S
Zr607       O634   2.442       .  S
Zr607       O622   2.477       .  S
Zr607       O613   2.399       .  S
Zr607       O614   2.401       .  S
Zr607       O615   2.374       .  S
Zr607       O616   2.399       .  S
Zr608       O627   2.437       .  S
Zr608       O620   2.434       .  S
Zr608       O621   2.389       .  S
Zr608       O614   2.395       .  S
Zr608       O615   2.386       .  S
Zr609       O611   2.434       .  S
Zr609       O633   2.439       .  S
Zr609       O635   2.423       .  S
Zr609       O613   2.410       .  S
Zr609       O616   2.399       .  S
Zr610       O636   2.436       .  S
Zr610       O637   2.435       .  S
Zr610       O612   2.436       .  S
Zr610       O613   2.379       .  S
Zr610       O614   2.392       .  S
O611        H648   0.990       .  S
O612        H643   0.990       .  S
O612        H657   0.990       .  S
O614        H640   0.966       .  S
O615       Zr625   2.361       .  S
O616       Zr625   2.373       .  S
O616        H641   0.966       .  S
C617       C1846   1.471       .  S
C618       C1650   1.500       .  S
C619       C1693   1.496       .  S
O620        H656   0.990       .  S
O621        C623   1.277       .  A
O622        C623   1.292       .  A
C623       C2518   1.477       .  S
O624       Zr625   2.439       .  S
O624        H653   0.990       .  S
Zr625       O628   2.436       .  S
Zr625       O629   2.440       .  S
Zr625       O630   2.471       .  S
O626        C631   1.280       .  A
O627        H644   0.990       .  S
O627        H659   0.990       .  S
O628        H645   0.990       .  S
O629        H649   0.990       .  S
O629        H658   0.990       .  S
O630        C631   1.291       .  A
C631       C1665   1.486       .  S
O632        H651   0.990       .  S
O632        H655   0.990       .  S
O633        H647   0.990       .  S
O633        H654   0.990       .  S
O634        C638   1.287       .  A
O635        C638   1.285       .  A
O636        H646   0.990       .  S
O637        H650   0.990       .  S
C638       C1734   1.478       .  S
Zr661       O662   2.436       .  S
Zr661       O663   2.476       .  S
Zr661       O664   2.466       .  S
Zr661       O667   2.418       .  S
Zr661       O669   2.379       .  S
Zr661       O670   2.381       .  S
Zr661       O671   2.419       .  S
Zr661       O672   2.416       .  S
O662        H718   0.990       .  S
O662        H726   0.990       .  S
O663        C683   1.291       .  A
O664        C685   1.289       .  A
O665       Zr675   2.463       .  S
O665        C684   1.289       .  A
O666       Zr674   2.414       .  S
O666        C685   1.281       .  A
O667        C684   1.281       .  A
O668       Zr676   2.401       .  S
O668        C683   1.278       .  A
O669       Zr674   2.391       .  S
O669       Zr676   2.385       .  S
O670       Zr675   2.377       .  S
O670       Zr676   2.387       .  S
O670        H705   0.965       .  S
O671       Zr674   2.394       .  S
O671       Zr691   2.424       .  S
O671        H708   0.966       .  S
O672       Zr675   2.380       .  S
O672       Zr691   2.411       .  S
Zr673       O698   2.442       .  S
Zr673       O692   2.416       .  S
Zr673       O700   2.451       .  S
Zr673       O688   2.467       .  S
Zr673       O679   2.398       .  S
Zr673       O680   2.406       .  S
Zr673       O681   2.380       .  S
Zr673       O682   2.396       .  S
Zr674       O693   2.441       .  S
Zr674       O686   2.434       .  S
Zr674       O687   2.400       .  S
Zr674       O680   2.390       .  S
Zr674       O681   2.388       .  S
Zr675       O677   2.434       .  S
Zr675       O699   2.438       .  S
Zr675       O701   2.411       .  S
Zr675       O679   2.401       .  S
Zr675       O682   2.395       .  S
Zr676       O702   2.434       .  S
Zr676       O703   2.436       .  S
Zr676       O678   2.437       .  S
Zr676       O679   2.381       .  S
Zr676       O680   2.396       .  S
O677        H714   0.990       .  S
O678        H709   0.990       .  S
O678        H723   0.990       .  S
O680        H706   0.966       .  S
O681       Zr691   2.362       .  S
O682       Zr691   2.373       .  S
O682        H707   0.966       .  S
C683       C1749   1.485       .  S
C684       C2001   1.490       .  S
C685       C1594   1.495       .  S
O686        H722   0.990       .  S
O687        C689   1.278       .  A
O688        C689   1.290       .  A
C689       C2154   1.477       .  S
O690       Zr691   2.440       .  S
O690        H719   0.991       .  S
Zr691       O694   2.436       .  S
Zr691       O695   2.441       .  S
Zr691       O696   2.477       .  S
O692        C697   1.283       .  A
O693        H710   0.990       .  S
O693        H725   0.991       .  S
O694        H711   0.990       .  S
O695        H715   0.990       .  S
O695        H724   0.990       .  S
O696        C697   1.293       .  A
C697       C1609   1.504       .  S
O698        H717   0.990       .  S
O698        H721   0.990       .  S
O699        H713   0.990       .  S
O699        H720   0.990       .  S
O700        C704   1.289       .  A
O701        C704   1.283       .  A
O702        H712   0.990       .  S
O703        H716   0.989       .  S
C704       C1566   1.482       .  S
Zr727       O728   2.440       .  S
Zr727       O729   2.465       .  S
Zr727       O730   2.465       .  S
Zr727       O733   2.418       .  S
Zr727       O735   2.375       .  S
Zr727       O736   2.385       .  S
Zr727       O737   2.421       .  S
Zr727       O738   2.415       .  S
O728        H784   0.990       .  S
O728        H792   0.990       .  S
O729        C749   1.289       .  A
O730        C751   1.287       .  A
O731       Zr741   2.473       .  S
O731        C750   1.291       .  A
O732       Zr740   2.397       .  S
O732        C751   1.277       .  A
O733        C750   1.281       .  A
O734       Zr742   2.410       .  S
O734        C749   1.280       .  A
O735       Zr740   2.387       .  S
O735       Zr742   2.379       .  S
O736       Zr741   2.374       .  S
O736       Zr742   2.390       .  S
O736        H771   0.965       .  S
O737       Zr740   2.392       .  S
O737       Zr757   2.424       .  S
O737        H774   0.966       .  S
O738       Zr741   2.383       .  S
O738       Zr757   2.408       .  S
Zr739       O764   2.438       .  S
Zr739       O758   2.420       .  S
Zr739       O766   2.455       .  S
Zr739       O754   2.483       .  S
Zr739       O745   2.401       .  S
Zr739       O746   2.407       .  S
Zr739       O747   2.373       .  S
Zr739       O748   2.399       .  S
Zr740       O759   2.441       .  S
Zr740       O752   2.435       .  S
Zr740       O753   2.385       .  S
Zr740       O746   2.390       .  S
Zr740       O747   2.384       .  S
Zr741       O743   2.433       .  S
Zr741       O765   2.440       .  S
Zr741       O767   2.420       .  S
Zr741       O745   2.402       .  S
Zr741       O748   2.393       .  S
Zr742       O768   2.435       .  S
Zr742       O769   2.437       .  S
Zr742       O744   2.438       .  S
Zr742       O745   2.385       .  S
Zr742       O746   2.401       .  S
O743        H780   0.990       .  S
O744        H775   0.990       .  S
O744        H789   0.990       .  S
O746        H772   0.966       .  S
O747       Zr757   2.360       .  S
O748       Zr757   2.375       .  S
O748        H773   0.966       .  S
C749       C1637   1.482       .  S
C750       C1874   1.494       .  S
C751       C1553   1.493       .  S
O752        H788   0.990       .  S
O753        C755   1.276       .  A
O754        C755   1.293       .  A
C755       C2042   1.477       .  S
O756       Zr757   2.438       .  S
O756        H785   0.990       .  S
Zr757       O760   2.437       .  S
Zr757       O761   2.438       .  S
Zr757       O762   2.476       .  S
O758        C763   1.283       .  A
O759        H776   0.990       .  S
O759        H791   0.990       .  S
O760        H777   0.990       .  S
O761        H781   0.990       .  S
O761        H790   0.990       .  S
O762        C763   1.292       .  A
C763       C1525   1.497       .  S
O764        H783   0.990       .  S
O764        H787   0.990       .  S
O765        H779   0.990       .  S
O765        H786   0.990       .  S
O766        C770   1.290       .  A
O767        C770   1.285       .  A
O768        H778   0.990       .  S
O769        H782   0.990       .  S
C770       C1581   1.489       .  S
Zr793       O794   2.438       .  S
Zr793       O795   2.435   1_545  S
Zr793       O796   2.486       .  S
Zr793       O799   2.470       .  S
Zr793       O801   2.385       .  S
Zr793       O802   2.396   1_545  S
Zr793       O803   2.408       .  S
Zr793       O804   2.394       .  S
O794        H850   0.990       .  S
O794        H858   0.990       .  S
O795        C815   1.284       .  A
O796        C817   1.293       .  A
O797       Zr807   2.416   1_545  S
O797        C816   1.283       .  A
O798       Zr806   2.388       .  S
O798        C817   1.277       .  A
O799        C816   1.293       .  A
O800       Zr808   2.446       .  S
O800        C815   1.286       .  A
O801       Zr806   2.401       .  S
O801       Zr808   2.373   1_545  S
O802       Zr807   2.386       .  S
O802       Zr808   2.370       .  S
O802        H837   0.965       .  S
O803       Zr806   2.395       .  S
O803       Zr823   2.389       .  S
O803        H840   0.966       .  S
O804       Zr807   2.405   1_545  S
O804       Zr823   2.379       .  S
Zr805       O830   2.442   1_546  S
Zr805       O824   2.488       .  S
Zr805       O832   2.404   1_545  S
Zr805       O820   2.458   1_556  S
Zr805       O811   2.424   1_545  S
Zr805       O812   2.417   1_545  S
Zr805       O813   2.372       .  S
Zr805       O814   2.382       .  S
Zr806       O825   2.436       .  S
Zr806       O818   2.435   1_556  S
Zr806       O819   2.414   1_556  S
Zr806       O812   2.386   1_545  S
Zr806       O813   2.385       .  S
Zr807       O809   2.435   1_565  S
Zr807       O831   2.438       .  S
Zr807       O833   2.458       .  S
Zr807       O811   2.389       .  S
Zr807       O814   2.370   1_565  S
Zr808       O834   2.437       .  S
Zr808       O835   2.435       .  S
Zr808       O810   2.438       .  S
Zr808       O811   2.411       .  S
Zr808       O812   2.409       .  S
O809        H846   0.990   1_545  S
O810        H841   0.990       .  S
O810        H855   0.990       .  S
O812        H838   0.965   1_556  S
O813       Zr823   2.383       .  S
O814       Zr823   2.389       .  S
O814        H839   0.964       .  S
C815       C1805   1.505       .  S
C816       C1426   1.493       .  S
C817       C2406   1.477       .  S
O818        H854   0.990       .  S
O819        C821   1.280       .  A
O820        C821   1.288       .  A
C821       C1454   1.489       .  S
O822       Zr823   2.439       .  S
O822        H851   0.990       .  S
Zr823       O826   2.437       .  S
Zr823       O827   2.439       .  S
Zr823       O828   2.392       .  S
O824        C829   1.292       .  A
O825        H842   0.990   1_556  S
O825        H857   0.990       .  S
O826        H843   0.990       .  S
O827        H847   0.990       .  S
O827        H856   0.991       .  S
O828        C829   1.279       .  A
C829       C1497   1.484       .  S
O830        H849   0.990   1_565  S
O830        H853   0.991       .  S
O831        H845   0.990       .  S
O831        H852   0.990       .  S
O832        C836   1.279       .  A
O833        C836   1.288       .  A
O834        H844   0.991       .  S
O835        H848   0.990       .  S
C836       C1469   1.485       .  S
Zr859       O860   2.439       .  S
Zr859       O861   2.425   1_545  S
Zr859       O862   2.478       .  S
Zr859       O865   2.459       .  S
Zr859       O867   2.381   1_545  S
Zr859       O868   2.398   1_545  S
Zr859       O869   2.406       .  S
Zr859       O870   2.398       .  S
O860        H916   0.990       .  S
O860        H924   0.990       .  S
O861        C881   1.283       .  A
O862        C883   1.291       .  A
O863       Zr873   2.420       .  S
O863        C882   1.284   1_565  A
O864       Zr872   2.387       .  S
O864        C883   1.276       .  A
O865        C882   1.290       .  A
O866       Zr874   2.454       .  S
O866        C881   1.287       .  A
O867       Zr872   2.394   1_565  S
O867       Zr874   2.368       .  S
O868       Zr873   2.389       .  S
O868       Zr874   2.376       .  S
O868        H903   0.966       .  S
O869       Zr872   2.398       .  S
O869       Zr889   2.397       .  S
O869        H906   0.966       .  S
O870       Zr873   2.400   1_545  S
O870       Zr889   2.382       .  S
Zr871       O896   2.440   1_545  S
Zr871       O890   2.469       .  S
Zr871       O898   2.407   1_545  S
Zr871       O886   2.461       .  S
Zr871       O877   2.416   1_545  S
Zr871       O878   2.416   1_545  S
Zr871       O879   2.373       .  S
Zr871       O880   2.382       .  S
Zr872       O891   2.437       .  S
Zr872       O884   2.435       .  S
Zr872       O885   2.413       .  S
Zr872       O878   2.391   1_545  S
Zr872       O879   2.387       .  S
Zr873       O875   2.436       .  S
Zr873       O897   2.436       .  S
Zr873       O899   2.456       .  S
Zr873       O877   2.386       .  S
Zr873       O880   2.373   1_565  S
Zr874       O900   2.435       .  S
Zr874       O901   2.436       .  S
Zr874       O876   2.437       .  S
Zr874       O877   2.401       .  S
Zr874       O878   2.420       .  S
O875        H912   0.990       .  S
O876        H907   0.990       .  S
O876        H921   0.990       .  S
O878        H904   0.966       .  S
O879       Zr889   2.381       .  S
O880       Zr889   2.388       .  S
O880        H905   0.965       .  S
C881       C1958   1.499       .  S
C882       C1441   1.485       .  S
C883       C2253   1.475       .  S
O884        H920   0.990       .  S
O885        C887   1.281       .  A
O886        C887   1.287       .  A
C887       C1413   1.496       .  S
O888       Zr889   2.438       .  S
O888        H917   0.990       .  S
Zr889       O892   2.438       .  S
Zr889       O893   2.438       .  S
Zr889       O894   2.403       .  S
O890        C895   1.288       .  A
O891        H908   0.990       .  S
O891        H923   0.990       .  S
O892        H909   0.990       .  S
O893        H913   0.990       .  S
O893        H922   0.990       .  S
O894        C895   1.279       .  A
C895       C1398   1.475       .  S
O896        H915   0.990       .  S
O896        H919   0.990       .  S
O897        H911   0.990       .  S
O897        H918   0.990       .  S
O898        C902   1.280       .  A
O899        C902   1.288       .  A
O900        H910   0.990       .  S
O901        H914   0.990       .  S
C902       C1357   1.479       .  S
Zr925       O926   2.437   1_556  S
Zr925       O927   2.428   1_455  S
Zr925       O928   2.472       .  S
Zr925       O931   2.446   1_556  S
Zr925       O933   2.384   1_455  S
Zr925       O934   2.395   1_455  S
Zr925       O935   2.405       .  S
Zr925       O936   2.400       .  S
O926        H982   0.990       .  S
O926        H990   0.990       .  S
O927        C947   1.282       .  A
O928        C949   1.290       .  A
O929       Zr939   2.412   1_554  S
O929        C948   1.283   1_655  A
O930       Zr938   2.398       .  S
O930        C949   1.278       .  A
O931        C948   1.287       .  A
O932       Zr940   2.453       .  S
O932        C947   1.288       .  A
O933       Zr938   2.394   1_655  S
O933       Zr940   2.374       .  S
O934       Zr939   2.389       .  S
O934       Zr940   2.374       .  S
O934        H969   0.966       .  S
O935       Zr938   2.397       .  S
O935       Zr955   2.385       .  S
O935        H972   0.966       .  S
O936       Zr939   2.405   1_455  S
O936       Zr955   2.385       .  S
Zr937       O962   2.439       .  S
Zr937       O956   2.460   1_655  S
Zr937       O964   2.411       .  S
Zr937       O952   2.439   1_655  S
Zr937       O943   2.417       .  S
Zr937       O944   2.412       .  S
Zr937       O945   2.377   1_655  S
Zr937       O946   2.378   1_655  S
Zr938       O957   2.436       .  S
Zr938       O950   2.434   1_455  S
Zr938       O951   2.427       .  S
Zr938       O944   2.383   1_455  S
Zr938       O945   2.387       .  S
Zr939       O941   2.436   1_656  S
Zr939       O963   2.435   1_556  S
Zr939       O965   2.449       .  S
Zr939       O943   2.386       .  S
Zr939       O946   2.371   1_655  S
Zr940       O966   2.438       .  S
Zr940       O967   2.435       .  S
Zr940       O942   2.437       .  S
Zr940       O943   2.413       .  S
Zr940       O944   2.411       .  S
O941        H978   0.990   1_455  S
O942        H973   0.990       .  S
O942        H987   0.990       .  S
O944        H970   0.966       .  S
O945       Zr955   2.380       .  S
O946       Zr955   2.377       .  S
O946        H971   0.965       .  S
C947       C2602   1.498       .  S
C948       C1314   1.489       .  S
C949       C1678   1.477       .  S
O950        H986   0.990   1_655  S
O951        C953   1.284       .  A
O952        C953   1.286       .  A
C953       C1286   1.490       .  S
O954       Zr955   2.435       .  S
O954        H983   0.990       .  S
Zr955       O958   2.435       .  S
Zr955       O959   2.436       .  S
Zr955       O960   2.407       .  S
O956        C961   1.289       .  A
O957        H974   0.990       .  S
O957        H989   0.990       .  S
O958        H975   0.990       .  S
O959        H979   0.990       .  S
O959        H988   0.990       .  S
O960        C961   1.280       .  A
C961       C1510   1.477       .  S
O962        H981   0.991       .  S
O962        H985   0.990       .  S
O963        H977   0.990   1_554  S
O963        H984   0.990       .  S
O964        C968   1.281       .  A
O965        C968   1.287       .  A
O966        H976   0.990       .  S
O967        H980   0.990       .  S
C968       C1329   1.487       .  S
Zr991       O992   2.440       .  S
Zr991       O993   2.444   1_455  S
Zr991       O994   2.485       .  S
Zr991       O997   2.442       .  S
Zr991       O999   2.381   1_455  S
Zr991      O1000   2.398   1_455  S
Zr991      O1001   2.405       .  S
Zr991      O1002   2.405       .  S
O992       H1048   0.990       .  S
O992       H1056   0.990       .  S
O993       C1013   1.285       .  A
O994       C1015   1.292       .  A
O995      Zr1005   2.423       .  S
O995       C1014   1.284   1_655  A
O996      Zr1004   2.394       .  S
O996       C1015   1.278       .  A
O997       C1014   1.287       .  A
O998      Zr1006   2.445       .  S
O998       C1013   1.286       .  A
O999      Zr1004   2.400   1_655  S
O999      Zr1006   2.378       .  S
O1000     Zr1005   2.399       .  S
O1000     Zr1006   2.376       .  S
O1000      H1035   0.966       .  S
O1001     Zr1004   2.392       .  S
O1001     Zr1021   2.395       .  S
O1001      H1038   0.966       .  S
O1002     Zr1005   2.405   1_455  S
O1002     Zr1021   2.386       .  S
Zr1003     O1028   2.441       .  S
Zr1003     O1022   2.448   1_655  S
Zr1003     O1030   2.407       .  S
Zr1003     O1018   2.435   1_655  S
Zr1003     O1009   2.407       .  S
Zr1003     O1010   2.407       .  S
Zr1003     O1011   2.379   1_655  S
Zr1003     O1012   2.374   1_655  S
Zr1004     O1023   2.436       .  S
Zr1004     O1016   2.434       .  S
Zr1004     O1017   2.419       .  S
Zr1004     O1010   2.386   1_455  S
Zr1004     O1011   2.386       .  S
Zr1005     O1007   2.435       .  S
Zr1005     O1029   2.437       .  S
Zr1005     O1031   2.476       .  S
Zr1005     O1009   2.386       .  S
Zr1005     O1012   2.364   1_655  S
Zr1006     O1032   2.435       .  S
Zr1006     O1033   2.438       .  S
Zr1006     O1008   2.439       .  S
Zr1006     O1009   2.409       .  S
Zr1006     O1010   2.408       .  S
O1007      H1044   0.990       .  S
O1008      H1039   0.990       .  S
O1008      H1053   0.990       .  S
O1010      H1036   0.966       .  S
O1011     Zr1021   2.374       .  S
O1012     Zr1021   2.377       .  S
O1012      H1037   0.965       .  S
C1013      C2434   1.498       .  S
C1014      C1273   1.480       .  S
C1015      C1777   1.483       .  S
O1016      H1052   0.990   1_455  S
O1017      C1019   1.283       .  A
O1018      C1019   1.285       .  A
C1019      C1301   1.483       .  S
O1020     Zr1021   2.436       .  S
O1020      H1049   0.990       .  S
Zr1021     O1024   2.434       .  S
Zr1021     O1025   2.436       .  S
Zr1021     O1026   2.422       .  S
O1022      C1027   1.287       .  A
O1023      H1040   0.990       .  S
O1023      H1055   0.990       .  S
O1024      H1041   0.990       .  S
O1025      H1045   0.990       .  S
O1025      H1054   0.990       .  S
O1026      C1027   1.283       .  A
C1027      C1385   1.477       .  S
O1028      H1047   0.990       .  S
O1028      H1051   0.990       .  S
O1029      H1043   0.990       .  S
O1029      H1050   0.990       .  S
O1030      C1034   1.281       .  A
O1031      C1034   1.292       .  A
O1032      H1042   0.990       .  S
O1033      H1046   0.990       .  S
C1034      C1245   1.500       .  S
Zr1057     O1058   2.439   1_556  S
Zr1057     O1059   2.462       .  S
Zr1057     O1060   2.449   1_556  S
Zr1057     O1063   2.399       .  S
Zr1057     O1065   2.374       .  S
Zr1057     O1066   2.381       .  S
Zr1057     O1067   2.409       .  S
Zr1057     O1068   2.416       .  S
O1058      H1114   0.990       .  S
O1058      H1122   0.990       .  S
O1059      C1079   1.289       .  A
O1060      C1081   1.286       .  A
O1061     Zr1071   2.454       .  S
O1061      C1080   1.288       .  A
O1062     Zr1070   2.404   1_554  S
O1062      C1081   1.279       .  A
O1063      C1080   1.279       .  A
O1064     Zr1072   2.406       .  S
O1064      C1079   1.279       .  A
O1065     Zr1070   2.392       .  S
O1065     Zr1072   2.381       .  S
O1066     Zr1071   2.378       .  S
O1066     Zr1072   2.374       .  S
O1066      H1101   0.965       .  S
O1067     Zr1070   2.388       .  S
O1067     Zr1087   2.416       .  S
O1067      H1104   0.966   1_556  S
O1068     Zr1071   2.387       .  S
O1068     Zr1087   2.409       .  S
Zr1069     O1094   2.438       .  S
Zr1069     O1088   2.438       .  S
Zr1069     O1096   2.441       .  S
Zr1069     O1084   2.457       .  S
Zr1069     O1075   2.405       .  S
Zr1069     O1076   2.405       .  S
Zr1069     O1077   2.379       .  S
Zr1069     O1078   2.392       .  S
Zr1070     O1089   2.436   1_556  S
Zr1070     O1082   2.435   1_556  S
Zr1070     O1083   2.396       .  S
Zr1070     O1076   2.394       .  S
Zr1070     O1077   2.390       .  S
Zr1071     O1073   2.435       .  S
Zr1071     O1095   2.440       .  S
Zr1071     O1097   2.422       .  S
Zr1071     O1075   2.401       .  S
Zr1071     O1078   2.395       .  S
Zr1072     O1098   2.435       .  S
Zr1072     O1099   2.434       .  S
Zr1072     O1074   2.437       .  S
Zr1072     O1075   2.385       .  S
Zr1072     O1076   2.387       .  S
O1073      H1110   0.990       .  S
O1074      H1105   0.990       .  S
O1074      H1119   0.990       .  S
O1076      H1102   0.966       .  S
O1077     Zr1087   2.374       .  S
O1078     Zr1087   2.375       .  S
O1078      H1103   0.966       .  S
C1079      C1482   1.484       .  S
C1080      C1342   1.485       .  S
C1081      C1217   1.488       .  S
O1082      H1118   0.990       .  S
O1083      C1085   1.279       .  A
O1084      C1085   1.287       .  A
C1085      C2182   1.475       .  S
O1086     Zr1087   2.439       .  S
O1086      H1115   0.990       .  S
Zr1087     O1090   2.436       .  S
Zr1087     O1091   2.440       .  S
Zr1087     O1092   2.458       .  S
O1088      C1093   1.285       .  A
O1089      H1106   0.990       .  S
O1089      H1121   0.990       .  S
O1090      H1107   0.990       .  S
O1091      H1111   0.990       .  S
O1091      H1120   0.990       .  S
O1092      C1093   1.288       .  A
C1093      C1538   1.510       .  S
O1094      H1113   0.990       .  S
O1094      H1117   0.990       .  S
O1095      H1109   0.990       .  S
O1095      H1116   0.990       .  S
O1096      C1100   1.285       .  A
O1097      C1100   1.285       .  A
O1098      H1108   0.990       .  S
O1099      H1112   0.990       .  S
C1100      C1189   1.491       .  S
Zr1123     O1124   2.442       .  S
Zr1123     O1125   2.461       .  S
Zr1123     O1126   2.445       .  S
Zr1123     O1129   2.409       .  S
Zr1123     O1131   2.378       .  S
Zr1123     O1132   2.379       .  S
Zr1123     O1133   2.410       .  S
Zr1123     O1134   2.412       .  S
O1124      H1180   0.991       .  S
O1124      H1188   0.990       .  S
O1125      C1145   1.288       .  A
O1126      C1147   1.284       .  A
O1127     Zr1137   2.462       .  S
O1127      C1146   1.290       .  A
O1128     Zr1136   2.409       .  S
O1128      C1147   1.279       .  A
O1129      C1146   1.281       .  A
O1130     Zr1138   2.399       .  S
O1130      C1145   1.278       .  A
O1131     Zr1136   2.395       .  S
O1131     Zr1138   2.380       .  S
O1132     Zr1137   2.375       .  S
O1132     Zr1138   2.383       .  S
O1132      H1167   0.965       .  S
O1133     Zr1136   2.389       .  S
O1133     Zr1153   2.410       .  S
O1133      H1170   0.966       .  S
O1134     Zr1137   2.384       .  S
O1134     Zr1153   2.406       .  S
Zr1135     O1160   2.440       .  S
Zr1135     O1154   2.429       .  S
Zr1135     O1162   2.437       .  S
Zr1135     O1150   2.474       .  S
Zr1135     O1141   2.402       .  S
Zr1135     O1142   2.402       .  S
Zr1135     O1143   2.375       .  S
Zr1135     O1144   2.393       .  S
Zr1136     O1155   2.438       .  S
Zr1136     O1148   2.435       .  S
Zr1136     O1149   2.390       .  S
Zr1136     O1142   2.400       .  S
Zr1136     O1143   2.390       .  S
Zr1137     O1139   2.434       .  S
Zr1137     O1161   2.441       .  S
Zr1137     O1163   2.412       .  S
Zr1137     O1141   2.403       .  S
Zr1137     O1144   2.398       .  S
Zr1138     O1164   2.438       .  S
Zr1138     O1165   2.436       .  S
Zr1138     O1140   2.437       .  S
Zr1138     O1141   2.383       .  S
Zr1138     O1142   2.390       .  S
O1139      H1176   0.990       .  S
O1140      H1171   0.990       .  S
O1140      H1185   0.990       .  S
O1142      H1168   0.966       .  S
O1143     Zr1153   2.373       .  S
O1144     Zr1153   2.377       .  S
O1144      H1169   0.966       .  S
C1145      C1370   1.486       .  S
C1146      C1258   1.499       .  S
C1147      C1202   1.476       .  S
O1148      H1184   0.990       .  S
O1149      C1151   1.277       .  A
O1150      C1151   1.290       .  A
C1151      C2070   1.476       .  S
O1152     Zr1153   2.438       .  S
O1152      H1181   0.990       .  S
Zr1153     O1156   2.437       .  S
Zr1153     O1157   2.440       .  S
Zr1153     O1158   2.446       .  S
O1154      C1159   1.283       .  A
O1155      H1172   0.990       .  S
O1155      H1187   0.990       .  S
O1156      H1173   0.990       .  S
O1157      H1177   0.990       .  S
O1157      H1186   0.989       .  S
O1158      C1159   1.286       .  A
C1159      C1622   1.496       .  S
O1160      H1179   0.990       .  S
O1160      H1183   0.990       .  S
O1161      H1175   0.990       .  S
O1161      H1182   0.990       .  S
O1162      C1166   1.286       .  A
O1163      C1166   1.283       .  A
O1164      H1174   0.990       .  S
O1165      H1178   0.990       .  S
C1166      C1230   1.476       .  S
C1189      C1190   1.418       .  A
C1189      C1194   1.409       .  A
C1190      C1191   1.407       .  A
C1190      N1195   1.438       .  S
C1191      C1192   1.403       .  A
C1191      H1196   1.084       .  S
C1192      C1197   1.485       .  S
C1192      C1193   1.407       .  A
C1193      C1194   1.403       .  A
C1193      N1198   1.438       .  S
C1194      H1199   1.083       .  S
N1195      H1215   1.045       .  S
N1195      H1216   1.046       .  S
C1197      C1200   1.404       .  A
C1197      C1204   1.410       .  A
N1198      H1213   1.045       .  S
N1198      H1214   1.046       .  S
C1200      C1201   1.404       .  A
C1200      H1205   1.084       .  S
C1201      C1202   1.412       .  A
C1201      N1206   1.438       .  S
C1202      C1203   1.403       .  A
C1203      C1204   1.404       .  A
C1203      H1207   1.084       .  S
C1204      N1208   1.437       .  S
N1206      H1209   1.046       .  S
N1206      H1210   1.046       .  S
N1208      H1211   1.046       .  S
N1208      H1212   1.046       .  S
C1217      C1218   1.415       .  A
C1217      C1222   1.411       .  A
C1218      C1219   1.403       .  A
C1218      N1223   1.436       .  S
C1219      C1220   1.401       .  A
C1219      H1224   1.084       .  S
C1220      C1225   1.479       .  S
C1220      C1221   1.406       .  A
C1221      C1222   1.404       .  A
C1221      N1226   1.438       .  S
C1222      H1227   1.083       .  S
N1223      H1243   1.045       .  S
N1223      H1244   1.046       .  S
C1225      C1228   1.404       .  A
C1225      C1232   1.408       .  A
N1226      H1241   1.046       .  S
N1226      H1242   1.046       .  S
C1228      C1229   1.407       .  A
C1228      H1233   1.084       .  S
C1229      C1230   1.412       .  A
C1229      N1234   1.438       .  S
C1230      C1231   1.404       .  A
C1231      C1232   1.399       .  A
C1231      H1235   1.084       .  S
C1232      N1236   1.438       .  S
N1234      H1237   1.046       .  S
N1234      H1238   1.046       .  S
N1236      H1239   1.045       .  S
N1236      H1240   1.046       .  S
C1245      C1246   1.416       .  A
C1245      C1250   1.413       .  A
C1246      C1247   1.413       .  A
C1246      N1251   1.437       .  S
C1247      C1248   1.406       .  A
C1247      H1252   1.084       .  S
C1248      C1253   1.492   1_545  S
C1248      C1249   1.407       .  A
C1249      C1250   1.406       .  A
C1249      N1254   1.438       .  S
C1250      H1255   1.083       .  S
N1251      H1271   1.045       .  S
N1251      H1272   1.046       .  S
C1253      C1256   1.406       .  A
C1253      C1260   1.407       .  A
N1254      H1269   1.046       .  S
N1254      H1270   1.046       .  S
C1256      C1257   1.413       .  A
C1256      H1261   1.083       .  S
C1257      C1258   1.417       .  A
C1257      N1262   1.437       .  S
C1258      C1259   1.412       .  A
C1259      C1260   1.405       .  A
C1259      H1263   1.083       .  S
C1260      N1264   1.438       .  S
N1262      H1265   1.045       .  S
N1262      H1266   1.046       .  S
N1264      H1267   1.046       .  S
N1264      H1268   1.046       .  S
C1273      C1274   1.408       .  A
C1273      C1278   1.406       .  A
C1274      C1275   1.402       .  A
C1274      N1279   1.430       .  S
C1275      C1276   1.403       .  A
C1275      H1280   1.084       .  S
C1276      C1281   1.486       .  S
C1276      C1277   1.411       .  A
C1277      C1278   1.406       .  A
C1277      N1282   1.437       .  S
C1278      H1283   1.084       .  S
N1279      H1299   1.045       .  S
N1279      H1300   1.045   1_455  S
C1281      C1284   1.403       .  A
C1281      C1288   1.409       .  A
N1282      H1297   1.046       .  S
N1282      H1298   1.046       .  S
C1284      C1285   1.404       .  A
C1284      H1289   1.084   1_455  S
C1285      C1286   1.413       .  A
C1285      N1290   1.432   1_455  S
C1286      C1287   1.408       .  A
C1287      C1288   1.406       .  A
C1287      H1291   1.083       .  S
C1288      N1292   1.438       .  S
N1290      H1293   1.046       .  S
N1290      H1294   1.046       .  S
N1292      H1295   1.046       .  S
N1292      H1296   1.046       .  S
C1301      C1302   1.415   1_455  A
C1301      C1306   1.407       .  A
C1302      C1303   1.404       .  A
C1302      N1307   1.437       .  S
C1303      C1304   1.402   1_655  A
C1303      H1308   1.084       .  S
C1304      C1309   1.485       .  S
C1304      C1305   1.410       .  A
C1305      C1306   1.404       .  A
C1305      N1310   1.438       .  S
C1306      H1311   1.084       .  S
N1307      H1327   1.045       .  S
N1307      H1328   1.046       .  S
C1309      C1312   1.403       .  A
C1309      C1316   1.409       .  A
N1310      H1325   1.046       .  S
N1310      H1326   1.046       .  S
C1312      C1313   1.405       .  A
C1312      H1317   1.084       .  S
C1313      C1314   1.416       .  A
C1313      N1318   1.437       .  S
C1314      C1315   1.409       .  A
C1315      C1316   1.403       .  A
C1315      H1319   1.083       .  S
C1316      N1320   1.438       .  S
N1318      H1321   1.046       .  S
N1318      H1322   1.044       .  S
N1320      H1323   1.046       .  S
N1320      H1324   1.045       .  S
C1329      C1330   1.415       .  A
C1329      C1334   1.410       .  A
C1330      C1331   1.407       .  A
C1330      N1335   1.437       .  S
C1331      C1332   1.402       .  A
C1331      H1336   1.084       .  S
C1332      C1337   1.479   1_545  S
C1332      C1333   1.405       .  A
C1333      C1334   1.404       .  A
C1333      N1338   1.438       .  S
C1334      H1339   1.084       .  S
N1335      H1355   1.045   1_556  S
N1335      H1356   1.046   1_556  S
C1337      C1340   1.402       .  A
C1337      C1344   1.405       .  A
N1338      H1353   1.046       .  S
N1338      H1354   1.046       .  S
C1340      C1341   1.407       .  A
C1340      H1345   1.084       .  S
C1341      C1342   1.413       .  A
C1341      N1346   1.437       .  S
C1342      C1343   1.410       .  A
C1343      C1344   1.403       .  A
C1343      H1347   1.084       .  S
C1344      N1348   1.438       .  S
N1346      H1349   1.045       .  S
N1346      H1350   1.046       .  S
N1348      H1351   1.046   1_556  S
N1348      H1352   1.046   1_565  S
C1357      C1358   1.413       .  A
C1357      C1362   1.403       .  A
C1358      C1359   1.402       .  A
C1358      N1363   1.439       .  S
C1359      C1360   1.402       .  A
C1359      H1364   1.083       .  S
C1360      C1365   1.491   1_455  S
C1360      C1361   1.415       .  A
C1361      C1362   1.410       .  A
C1361      N1366   1.438       .  S
C1362      H1367   1.084       .  S
N1363      H1383   1.046       .  S
N1363      H1384   1.046       .  S
C1365      C1368   1.406       .  A
C1365      C1372   1.412       .  A
N1366      H1381   1.046       .  S
N1366      H1382   1.045       .  S
C1368      C1369   1.410       .  A
C1368      H1373   1.083       .  S
C1369      C1370   1.415       .  A
C1369      N1374   1.438       .  S
C1370      C1371   1.406       .  A
C1371      C1372   1.402       .  A
C1371      H1375   1.084       .  S
C1372      N1376   1.439       .  S
N1374      H1377   1.046       .  S
N1374      H1378   1.045       .  S
N1376      H1379   1.046       .  S
N1376      H1380   1.046       .  S
C1385      C1386   1.410       .  A
C1385      C1390   1.407       .  A
C1386      C1387   1.403       .  A
C1386      N1391   1.438       .  S
C1387      C1388   1.401       .  A
C1387      H1392   1.084       .  S
C1388      C1393   1.479       .  S
C1388      C1389   1.408       .  A
C1389      C1390   1.409       .  A
C1389      N1394   1.437       .  S
C1390      H1395   1.083       .  S
N1391      H1411   1.045       .  S
N1391      H1412   1.046       .  S
C1393      C1396   1.406       .  A
C1393      C1400   1.405       .  A
N1394      H1409   1.046       .  S
N1394      H1410   1.045       .  S
C1396      C1397   1.412       .  A
C1396      H1401   1.084       .  S
C1397      C1398   1.408       .  A
C1397      N1402   1.437       .  S
C1398      C1399   1.405       .  A
C1399      C1400   1.400       .  A
C1399      H1403   1.084       .  S
C1400      N1404   1.438       .  S
N1402      H1405   1.046       .  S
N1402      H1406   1.046       .  S
N1404      H1407   1.046       .  S
N1404      H1408   1.045       .  S
C1413      C1414   1.417       .  A
C1413      C1418   1.409       .  A
C1414      C1415   1.409       .  A
C1414      N1419   1.436   1_545  S
C1415      C1416   1.404       .  A
C1415      H1420   1.083   1_545  S
C1416      C1421   1.492       .  S
C1416      C1417   1.409       .  A
C1417      C1418   1.406       .  A
C1417      N1422   1.438       .  S
C1418      H1423   1.083       .  S
N1419      H1439   1.045       .  S
N1419      H1440   1.045       .  S
C1421      C1424   1.406       .  A
C1421      C1428   1.410       .  A
N1422      H1437   1.045       .  S
N1422      H1438   1.046       .  S
C1424      C1425   1.409       .  A
C1424      H1429   1.084       .  S
C1425      C1426   1.413       .  A
C1425      N1430   1.436       .  S
C1426      C1427   1.410       .  A
C1427      C1428   1.406       .  A
C1427      H1431   1.084       .  S
C1428      N1432   1.438       .  S
N1430      H1433   1.046       .  S
N1430      H1434   1.045   1_545  S
N1432      H1435   1.046       .  S
N1432      H1436   1.045       .  S
C1441      C1442   1.416       .  A
C1441      C1446   1.405       .  A
C1442      C1443   1.403       .  A
C1442      N1447   1.438       .  S
C1443      C1444   1.398       .  A
C1443      H1448   1.084       .  S
C1444      C1449   1.484       .  S
C1444      C1445   1.412       .  A
C1445      C1446   1.412       .  A
C1445      N1450   1.437       .  S
C1446      H1451   1.084   1_545  S
N1447      H1467   1.046       .  S
N1447      H1468   1.045       .  S
C1449      C1452   1.399       .  A
C1449      C1456   1.411       .  A
N1450      H1465   1.046   1_545  S
N1450      H1466   1.046   1_545  S
C1452      C1453   1.403       .  A
C1452      H1457   1.084       .  S
C1453      C1454   1.415       .  A
C1453      N1458   1.433       .  S
C1454      C1455   1.407       .  A
C1455      C1456   1.410       .  A
C1455      H1459   1.083   1_545  S
C1456      N1460   1.437   1_545  S
N1458      H1461   1.046       .  S
N1458      H1462   1.046       .  S
N1460      H1463   1.046       .  S
N1460      H1464   1.046       .  S
C1469      C1470   1.414       .  A
C1469      C1474   1.408       .  A
C1470      C1471   1.410       .  A
C1470      N1475   1.437       .  S
C1471      C1472   1.405       .  A
C1471      H1476   1.084       .  S
C1472      C1477   1.486   1_455  S
C1472      C1473   1.407       .  A
C1473      C1474   1.402       .  A
C1473      N1478   1.438   1_556  S
C1474      H1479   1.084       .  S
N1475      H1495   1.045       .  S
N1475      H1496   1.046       .  S
C1477      C1480   1.400       .  A
C1477      C1484   1.412       .  A
N1478      H1493   1.046       .  S
N1478      H1494   1.046       .  S
C1480      C1481   1.399       .  A
C1480      H1485   1.084       .  S
C1481      C1482   1.412       .  A
C1481      N1486   1.433       .  S
C1482      C1483   1.407       .  A
C1483      C1484   1.412       .  A
C1483      H1487   1.084       .  S
C1484      N1488   1.437       .  S
N1486      H1489   1.046       .  S
N1486      H1490   1.046   1_556  S
N1488      H1491   1.046       .  S
N1488      H1492   1.046   1_655  S
C1497      C1498   1.410       .  A
C1497      C1502   1.408       .  A
C1498      C1499   1.416       .  A
C1498      N1503   1.436       .  S
C1499      C1500   1.410       .  A
C1499      H1504   1.083       .  S
C1500      C1505   1.485       .  S
C1500      C1501   1.405       .  A
C1501      C1502   1.397       .  A
C1501      N1506   1.439       .  S
C1502      H1507   1.084       .  S
N1503      H1523   1.045   1_556  S
N1503      H1524   1.046   1_556  S
C1505      C1508   1.404       .  A
C1505      C1512   1.409       .  A
N1506      H1521   1.046       .  S
N1506      H1522   1.046       .  S
C1508      C1509   1.403       .  A
C1508      H1513   1.084       .  S
C1509      C1510   1.411       .  A
C1509      N1514   1.438       .  S
C1510      C1511   1.406       .  A
C1511      C1512   1.409       .  A
C1511      H1515   1.084       .  S
C1512      N1516   1.437       .  S
N1514      H1517   1.046       .  S
N1514      H1518   1.046       .  S
N1516      H1519   1.046       .  S
N1516      H1520   1.046       .  S
C1525      C1526   1.415       .  A
C1525      C1530   1.409       .  A
C1526      C1527   1.416       .  A
C1526      N1531   1.437       .  S
C1527      C1528   1.406       .  A
C1527      H1532   1.083       .  S
C1528      C1533   1.498       .  S
C1528      C1529   1.410       .  A
C1529      C1530   1.410       .  A
C1529      N1534   1.438       .  S
C1530      H1535   1.084       .  S
N1531      H1551   1.045       .  S
N1531      H1552   1.045       .  S
C1533      C1536   1.403       .  A
C1533      C1540   1.409       .  A
N1534      H1549   1.046       .  S
N1534      H1550   1.046       .  S
C1536      C1537   1.414       .  A
C1536      H1541   1.084       .  S
C1537      C1538   1.421       .  A
C1537      N1542   1.437       .  S
C1538      C1539   1.413       .  A
C1539      C1540   1.412       .  A
C1539      H1543   1.083       .  S
C1540      N1544   1.438       .  S
N1542      H1545   1.046       .  S
N1542      H1546   1.046       .  S
N1544      H1547   1.046       .  S
N1544      H1548   1.046       .  S
C1553      C1554   1.416       .  A
C1553      C1558   1.411       .  A
C1554      C1555   1.409       .  A
C1554      N1559   1.436       .  S
C1555      C1556   1.404       .  A
C1555      H1560   1.084       .  S
C1556      C1561   1.482       .  S
C1556      C1557   1.404       .  A
C1557      C1558   1.402       .  A
C1557      N1562   1.438       .  S
C1558      H1563   1.083       .  S
N1559      H1579   1.045       .  S
N1559      H1580   1.046       .  S
C1561      C1564   1.406       .  A
C1561      C1568   1.405       .  A
N1562      H1577   1.045       .  S
N1562      H1578   1.046       .  S
C1564      C1565   1.409       .  A
C1564      H1569   1.084       .  S
C1565      C1566   1.412       .  A
C1565      N1570   1.438       .  S
C1566      C1567   1.408       .  A
C1567      C1568   1.401       .  A
C1567      H1571   1.084       .  S
C1568      N1572   1.438       .  S
N1570      H1573   1.046       .  S
N1570      H1574   1.046       .  S
N1572      H1575   1.046       .  S
N1572      H1576   1.046       .  S
C1581      C1582   1.414       .  A
C1581      C1586   1.408       .  A
C1582      C1583   1.413       .  A
C1582      N1587   1.437       .  S
C1583      C1584   1.407       .  A
C1583      H1588   1.084       .  S
C1584      C1589   1.488       .  S
C1584      C1585   1.406       .  A
C1585      C1586   1.402       .  A
C1585      N1590   1.438       .  S
C1586      H1591   1.084       .  S
N1587      H1607   1.046       .  S
N1587      H1608   1.046       .  S
C1589      C1592   1.402   1_556  A
C1589      C1596   1.407   1_556  A
N1590      H1605   1.046       .  S
N1590      H1606   1.046       .  S
C1592      C1593   1.408       .  A
C1592      H1597   1.084   1_554  S
C1593      C1594   1.415       .  A
C1593      N1598   1.435       .  S
C1594      C1595   1.411       .  A
C1595      C1596   1.409       .  A
C1595      H1599   1.084       .  S
C1596      N1600   1.438   1_554  S
N1598      H1601   1.046       .  S
N1598      H1602   1.045       .  S
N1600      H1603   1.045   1_556  S
N1600      H1604   1.046       .  S
C1609      C1610   1.418       .  A
C1609      C1614   1.411       .  A
C1610      C1611   1.415       .  A
C1610      N1615   1.437       .  S
C1611      C1612   1.407       .  A
C1611      H1616   1.083       .  S
C1612      C1617   1.498       .  S
C1612      C1613   1.409       .  A
C1613      C1614   1.407       .  A
C1613      N1618   1.438       .  S
C1614      H1619   1.083       .  S
N1615      H1635   1.046       .  S
N1615      H1636   1.046       .  S
C1617      C1620   1.407       .  A
C1617      C1624   1.410       .  A
N1618      H1633   1.046       .  S
N1618      H1634   1.046       .  S
C1620      C1621   1.412       .  A
C1620      H1625   1.084       .  S
C1621      C1622   1.416       .  A
C1621      N1626   1.438       .  S
C1622      C1623   1.409       .  A
C1623      C1624   1.408       .  A
C1623      H1627   1.084       .  S
C1624      N1628   1.438       .  S
N1626      H1629   1.046       .  S
N1626      H1630   1.046       .  S
N1628      H1631   1.046       .  S
N1628      H1632   1.046       .  S
C1637      C1638   1.412       .  A
C1637      C1642   1.405       .  A
C1638      C1639   1.406       .  A
C1638      N1643   1.433       .  S
C1639      C1640   1.402       .  A
C1639      H1644   1.084       .  S
C1640      C1645   1.482       .  S
C1640      C1641   1.410       .  A
C1641      C1642   1.407       .  A
C1641      N1646   1.438       .  S
C1642      H1647   1.084       .  S
N1643      H1663   1.046       .  S
N1643      H1664   1.046       .  S
C1645      C1648   1.393       .  A
C1645      C1652   1.412       .  A
N1646      H1661   1.046       .  S
N1646      H1662   1.044       .  S
C1648      C1649   1.399       .  A
C1648      H1653   1.085       .  S
C1649      C1650   1.427       .  A
C1649      N1654   1.434       .  S
C1650      C1651   1.407       .  A
C1651      C1652   1.413       .  A
C1651      H1655   1.083       .  S
C1652      N1656   1.437       .  S
N1654      H1657   1.046       .  S
N1654      H1658   1.046       .  S
N1656      H1659   1.046       .  S
N1656      H1660   1.045       .  S
C1665      C1666   1.412       .  A
C1665      C1670   1.408       .  A
C1666      C1667   1.411       .  A
C1666      N1671   1.438       .  S
C1667      C1668   1.406       .  A
C1667      H1672   1.084       .  S
C1668      C1673   1.488       .  S
C1668      C1669   1.407       .  A
C1669      C1670   1.406       .  A
C1669      N1674   1.438       .  S
C1670      H1675   1.084       .  S
N1671      H1691   1.046       .  S
N1671      H1692   1.046       .  S
C1673      C1676   1.405       .  A
C1673      C1680   1.410       .  A
N1674      H1689   1.046       .  S
N1674      H1690   1.046       .  S
C1676      C1677   1.410       .  A
C1676      H1681   1.083       .  S
C1677      C1678   1.410       .  A
C1677      N1682   1.437       .  S
C1678      C1679   1.404       .  A
C1679      C1680   1.405       .  A
C1679      H1683   1.084       .  S
C1680      N1684   1.437       .  S
N1682      H1685   1.046       .  S
N1682      H1686   1.045       .  S
N1684      H1687   1.046       .  S
N1684      H1688   1.046       .  S
C1693      C1694   1.421       .  A
C1693      C1698   1.411       .  A
C1694      C1695   1.396       .  A
C1694      N1699   1.429       .  S
C1695      C1696   1.400       .  A
C1695      H1700   1.084       .  S
C1696      C1701   1.488       .  S
C1696      C1697   1.410       .  A
C1697      C1698   1.408       .  A
C1697      N1702   1.438       .  S
C1698      H1703   1.083       .  S
N1699      H1719   1.044       .  S
N1699      H1720   1.045       .  S
C1701      C1704   1.404       .  A
C1701      C1708   1.410       .  A
N1702      H1717   1.046       .  S
N1702      H1718   1.046       .  S
C1704      C1705   1.408       .  A
C1704      H1709   1.084       .  S
C1705      C1706   1.414       .  A
C1705      N1710   1.436       .  S
C1706      C1707   1.407       .  A
C1707      C1708   1.404       .  A
C1707      H1711   1.084       .  S
C1708      N1712   1.438       .  S
N1710      H1713   1.046       .  S
N1710      H1714   1.045       .  S
N1712      H1715   1.046       .  S
N1712      H1716   1.045       .  S
C1721      C1722   1.417       .  A
C1721      C1726   1.411       .  A
C1722      C1723   1.405       .  A
C1722      N1727   1.435       .  S
C1723      C1724   1.399       .  A
C1723      H1728   1.084       .  S
C1724      C1729   1.480   1_554  S
C1724      C1725   1.406       .  A
C1725      C1726   1.406       .  A
C1725      N1730   1.438       .  S
C1726      H1731   1.083       .  S
N1727      H1747   1.046       .  S
N1727      H1748   1.045       .  S
C1729      C1732   1.403       .  A
C1729      C1736   1.407       .  A
N1730      H1745   1.046       .  S
N1730      H1746   1.046   1_554  S
C1732      C1733   1.407       .  A
C1732      H1737   1.084       .  S
C1733      C1734   1.413       .  A
C1733      N1738   1.438       .  S
C1734      C1735   1.406       .  A
C1735      C1736   1.403       .  A
C1735      H1739   1.084       .  S
C1736      N1740   1.438       .  S
N1738      H1741   1.046       .  S
N1738      H1742   1.045       .  S
N1740      H1743   1.046       .  S
N1740      H1744   1.046       .  S
C1749      C1750   1.411       .  A
C1749      C1754   1.406       .  A
C1750      C1751   1.403       .  A
C1750      N1755   1.433       .  S
C1751      C1752   1.403       .  A
C1751      H1756   1.084       .  S
C1752      C1757   1.492       .  S
C1752      C1753   1.413       .  A
C1753      C1754   1.413       .  A
C1753      N1758   1.437       .  S
C1754      H1759   1.084       .  S
N1755      H1775   1.046       .  S
N1755      H1776   1.046       .  S
C1757      C1760   1.408       .  A
C1757      C1764   1.407       .  A
N1758      H1773   1.046       .  S
N1758      H1774   1.046       .  S
C1760      C1761   1.414       .  A
C1760      H1765   1.083       .  S
C1761      C1762   1.413       .  A
C1761      N1766   1.437       .  S
C1762      C1763   1.410       .  A
C1763      C1764   1.402       .  A
C1763      H1767   1.083       .  S
C1764      N1768   1.438       .  S
N1766      H1769   1.046       .  S
N1766      H1770   1.045       .  S
N1768      H1771   1.046       .  S
N1768      H1772   1.046       .  S
C1777      C1778   1.413       .  A
C1777      C1782   1.405       .  A
C1778      C1779   1.404       .  A
C1778      N1783   1.438       .  S
C1779      C1780   1.401       .  A
C1779      H1784   1.084       .  S
C1780      C1785   1.491       .  S
C1780      C1781   1.413       .  A
C1781      C1782   1.414       .  A
C1781      N1786   1.437       .  S
C1782      H1787   1.084       .  S
N1783      H1803   1.045       .  S
N1783      H1804   1.046       .  S
C1785      C1788   1.400       .  A
C1785      C1792   1.414       .  A
N1786      H1801   1.046       .  S
N1786      H1802   1.046       .  S
C1788      C1789   1.408       .  A
C1788      H1793   1.084       .  S
C1789      C1790   1.418       .  A
C1789      N1794   1.437       .  S
C1790      C1791   1.403       .  A
C1791      C1792   1.410       .  A
C1791      H1795   1.083       .  S
C1792      N1796   1.437       .  S
N1794      H1797   1.045       .  S
N1794      H1798   1.046       .  S
N1796      H1799   1.045       .  S
N1796      H1800   1.046       .  S
C1805      C1806   1.423       .  A
C1805      C1810   1.411       .  A
C1806      C1807   1.408       .  A
C1806      N1811   1.437       .  S
C1807      C1808   1.400       .  A
C1807      H1812   1.084       .  S
C1808      C1813   1.494       .  S
C1808      C1809   1.411       .  A
C1809      C1810   1.411       .  A
C1809      N1814   1.437       .  S
C1810      H1815   1.083       .  S
N1811      H1831   1.044       .  S
N1811      H1832   1.046       .  S
C1813      C1816   1.402       .  A
C1813      C1820   1.414       .  A
N1814      H1829   1.046       .  S
N1814      H1830   1.046       .  S
C1816      C1817   1.408       .  A
C1816      H1821   1.084       .  S
C1817      C1818   1.417       .  A
C1817      N1822   1.438       .  S
C1818      C1819   1.405       .  A
C1819      C1820   1.412       .  A
C1819      H1823   1.083       .  S
C1820      N1824   1.437       .  S
N1822      H1825   1.046       .  S
N1822      H1826   1.046       .  S
N1824      H1827   1.046       .  S
N1824      H1828   1.046       .  S
C1833      C1834   1.413       .  A
C1833      C1838   1.407       .  A
C1834      C1835   1.412       .  A
C1834      N1839   1.437       .  S
C1835      C1836   1.407       .  A
C1835      H1840   1.083       .  S
C1836      C1841   1.485       .  S
C1836      C1837   1.407       .  A
C1837      C1838   1.398       .  A
C1837      N1842   1.439       .  S
C1838      H1843   1.083       .  S
N1839      H1859   1.045       .  S
N1839      H1860   1.046       .  S
C1841      C1844   1.403       .  A
C1841      C1848   1.412       .  A
N1842      H1857   1.046       .  S
N1842      H1858   1.045       .  S
C1844      C1845   1.401       .  A
C1844      H1849   1.084       .  S
C1845      C1846   1.408       .  A
C1845      N1850   1.438       .  S
C1846      C1847   1.405       .  A
C1847      C1848   1.408       .  A
C1847      H1851   1.084       .  S
C1848      N1852   1.437       .  S
N1850      H1853   1.046       .  S
N1850      H1854   1.046       .  S
N1852      H1855   1.046       .  S
N1852      H1856   1.045       .  S
C1861      C1862   1.414       .  A
C1861      C1866   1.409       .  A
C1862      C1863   1.414       .  A
C1862      N1867   1.437       .  S
C1863      C1864   1.408       .  A
C1863      H1868   1.083       .  S
C1864      C1869   1.501       .  S
C1864      C1865   1.412       .  A
C1865      C1866   1.408       .  A
C1865      N1870   1.438       .  S
C1866      H1871   1.084       .  S
N1867      H1887   1.045       .  S
N1867      H1888   1.046       .  S
C1869      C1872   1.404       .  A
C1869      C1876   1.415       .  A
N1870      H1885   1.046       .  S
N1870      H1886   1.046       .  S
C1872      C1873   1.409       .  A
C1872      H1877   1.083       .  S
C1873      C1874   1.416       .  A
C1873      N1878   1.438       .  S
C1874      C1875   1.405       .  A
C1875      C1876   1.414       .  A
C1875      H1879   1.083       .  S
C1876      N1880   1.437       .  S
N1878      H1881   1.045       .  S
N1878      H1882   1.046       .  S
N1880      H1883   1.045       .  S
N1880      H1884   1.046       .  S
C1889      C1890   1.415       .  A
C1889      C1894   1.406       .  A
C1890      C1891   1.402       .  A
C1890      N1895   1.438       .  S
C1891      C1892   1.400       .  A
C1891      H1896   1.084       .  S
C1892      C1897   1.479       .  S
C1892      C1893   1.409       .  A
C1893      C1894   1.406       .  A
C1893      N1898   1.438       .  S
C1894      H1899   1.084       .  S
N1895      H1915   1.046       .  S
N1895      H1916   1.046       .  S
C1897      C1900   1.402       .  A
C1897      C1904   1.408       .  A
N1898      H1913   1.046       .  S
N1898      H1914   1.046       .  S
C1900      C1901   1.406       .  A
C1900      H1905   1.084       .  S
C1901      C1902   1.414       .  A
C1901      N1906   1.438       .  S
C1902      C1903   1.405       .  A
C1903      C1904   1.402       .  A
C1903      H1907   1.083       .  S
C1904      N1908   1.438       .  S
N1906      H1909   1.046       .  S
N1906      H1910   1.046       .  S
N1908      H1911   1.046       .  S
N1908      H1912   1.046       .  S
C1917      C1918   1.414       .  A
C1917      C1922   1.406       .  A
C1918      C1919   1.401       .  A
C1918      N1923   1.438       .  S
C1919      C1920   1.400   1_554  A
C1919      H1924   1.084   1_554  S
C1920      C1925   1.469       .  S
C1920      C1921   1.406   1_556  A
C1921      C1922   1.399       .  A
C1921      N1926   1.438   1_554  S
C1922      H1927   1.083       .  S
N1923      H1943   1.046       .  S
N1923      H1944   1.046       .  S
C1925      C1928   1.399       .  A
C1925      C1932   1.408       .  A
N1926      H1941   1.046   1_556  S
N1926      H1942   1.045       .  S
C1928      C1929   1.399       .  A
C1928      H1933   1.084       .  S
C1929      C1930   1.414       .  A
C1929      N1934   1.439       .  S
C1930      C1931   1.402       .  A
C1931      C1932   1.399       .  A
C1931      H1935   1.083       .  S
C1932      N1936   1.438       .  S
N1934      H1937   1.046       .  S
N1934      H1938   1.046       .  S
N1936      H1939   1.046       .  S
N1936      H1940   1.046       .  S
C1945      C1946   1.415       .  A
C1945      C1950   1.410       .  A
C1946      C1947   1.410       .  A
C1946      N1951   1.437       .  S
C1947      C1948   1.405       .  A
C1947      H1952   1.084       .  S
C1948      C1953   1.489       .  S
C1948      C1949   1.408       .  A
C1949      C1950   1.405       .  A
C1949      N1954   1.438       .  S
C1950      H1955   1.084       .  S
N1951      H1971   1.045       .  S
N1951      H1972   1.046       .  S
C1953      C1956   1.403       .  A
C1953      C1960   1.408       .  A
N1954      H1969   1.046       .  S
N1954      H1970   1.046       .  S
C1956      C1957   1.411       .  A
C1956      H1961   1.084       .  S
C1957      C1958   1.419       .  A
C1957      N1962   1.437       .  S
C1958      C1959   1.411       .  A
C1959      C1960   1.406       .  A
C1959      H1963   1.083       .  S
C1960      N1964   1.438       .  S
N1962      H1965   1.046       .  S
N1962      H1966   1.045       .  S
N1964      H1967   1.046       .  S
N1964      H1968   1.046       .  S
C1973      C1974   1.409       .  A
C1973      C1978   1.405       .  A
C1974      C1975   1.400       .  A
C1974      N1979   1.438       .  S
C1975      C1976   1.402       .  A
C1975      H1980   1.084       .  S
C1976      C1981   1.477       .  S
C1976      C1977   1.408       .  A
C1977      C1978   1.406       .  A
C1977      N1982   1.437       .  S
C1978      H1983   1.084       .  S
N1979      H1999   1.046       .  S
N1979      H2000   1.046       .  S
C1981      C1984   1.408       .  A
C1981      C1988   1.401       .  A
N1982      H1997   1.046       .  S
N1982      H1998   1.046       .  S
C1984      C1985   1.413       .  A
C1984      H1989   1.084       .  S
C1985      C1986   1.413       .  A
C1985      N1990   1.437       .  S
C1986      C1987   1.409       .  A
C1987      C1988   1.392       .  A
C1987      H1991   1.082       .  S
C1988      N1992   1.439       .  S
N1990      H1993   1.046       .  S
N1990      H1994   1.046       .  S
N1992      H1995   1.046       .  S
N1992      H1996   1.046       .  S
C2001      C2002   1.413       .  A
C2001      C2006   1.406       .  A
C2002      C2003   1.402       .  A
C2002      N2007   1.432       .  S
C2003      C2004   1.400       .  A
C2003      H2008   1.084       .  S
C2004      C2009   1.492       .  S
C2004      C2005   1.415       .  A
C2005      C2006   1.414       .  A
C2005      N2010   1.437       .  S
C2006      H2011   1.084       .  S
N2007      H2027   1.046       .  S
N2007      H2028   1.046       .  S
C2009      C2012   1.405       .  A
C2009      C2016   1.411       .  A
N2010      H2025   1.046       .  S
N2010      H2026   1.046       .  S
C2012      C2013   1.411       .  A
C2012      H2017   1.084       .  S
C2013      C2014   1.417       .  A
C2013      N2018   1.438       .  S
C2014      C2015   1.406       .  A
C2015      C2016   1.405       .  A
C2015      H2019   1.084       .  S
C2016      N2020   1.438       .  S
N2018      H2021   1.046       .  S
N2018      H2022   1.046       .  S
N2020      H2023   1.046       .  S
N2020      H2024   1.046       .  S
C2029      C2030   1.411       .  A
C2029      C2034   1.401       .  A
C2030      C2031   1.406       .  A
C2030      N2035   1.438       .  S
C2031      C2032   1.400       .  A
C2031      H2036   1.084       .  S
C2032      C2037   1.484       .  S
C2032      C2033   1.414       .  A
C2033      C2034   1.409       .  A
C2033      N2038   1.438       .  S
C2034      H2039   1.084       .  S
N2035      H2055   1.046       .  S
N2035      H2056   1.046       .  S
C2037      C2040   1.398       .  A
C2037      C2044   1.414       .  A
N2038      H2053   1.046       .  S
N2038      H2054   1.045       .  S
C2040      C2041   1.406       .  A
C2040      H2045   1.084       .  S
C2041      C2042   1.415       .  A
C2041      N2046   1.438       .  S
C2042      C2043   1.401       .  A
C2043      C2044   1.410       .  A
C2043      H2047   1.084       .  S
C2044      N2048   1.438       .  S
N2046      H2049   1.046       .  S
N2046      H2050   1.046       .  S
N2048      H2051   1.046       .  S
N2048      H2052   1.045       .  S
C2057      C2058   1.411       .  A
C2057      C2062   1.402       .  A
C2058      C2059   1.402       .  A
C2058      N2063   1.431       .  S
C2059      C2060   1.401       .  A
C2059      H2064   1.084       .  S
C2060      C2065   1.490       .  S
C2060      C2061   1.416       .  A
C2061      C2062   1.409       .  A
C2061      N2066   1.438       .  S
C2062      H2067   1.084       .  S
N2063      H2083   1.046       .  S
N2063      H2084   1.046       .  S
C2065      C2068   1.402       .  A
C2065      C2072   1.415       .  A
N2066      H2081   1.046       .  S
N2066      H2082   1.045       .  S
C2068      C2069   1.403       .  A
C2068      H2073   1.084       .  S
C2069      C2070   1.412       .  A
C2069      N2074   1.438       .  S
C2070      C2071   1.402       .  A
C2071      C2072   1.410       .  A
C2071      H2075   1.084       .  S
C2072      N2076   1.437       .  S
N2074      H2077   1.046       .  S
N2074      H2078   1.045       .  S
N2076      H2079   1.046       .  S
N2076      H2080   1.046       .  S
C2085      C2086   1.416       .  A
C2085      C2090   1.409       .  A
C2086      C2087   1.407       .  A
C2086      N2091   1.437       .  S
C2087      C2088   1.402       .  A
C2087      H2092   1.084       .  S
C2088      C2093   1.482       .  S
C2088      C2089   1.406       .  A
C2089      C2090   1.404       .  A
C2089      N2094   1.437       .  S
C2090      H2095   1.084       .  S
N2091      H2111   1.046       .  S
N2091      H2112   1.046       .  S
C2093      C2096   1.405       .  A
C2093      C2100   1.406       .  A
N2094      H2109   1.046       .  S
N2094      H2110   1.046       .  S
C2096      C2097   1.411       .  A
C2096      H2101   1.084       .  S
C2097      C2098   1.412       .  A
C2097      N2102   1.437       .  S
C2098      C2099   1.407       .  A
C2099      C2100   1.403       .  A
C2099      H2103   1.084       .  S
C2100      N2104   1.438       .  S
N2102      H2105   1.046       .  S
N2102      H2106   1.046       .  S
N2104      H2107   1.046       .  S
N2104      H2108   1.046       .  S
C2113      C2114   1.418       .  A
C2113      C2118   1.409       .  A
C2114      C2115   1.408       .  A
C2114      N2119   1.436       .  S
C2115      C2116   1.402       .  A
C2115      H2120   1.084       .  S
C2116      C2121   1.484       .  S
C2116      C2117   1.407       .  A
C2117      C2118   1.404       .  A
C2117      N2122   1.438       .  S
C2118      H2123   1.083       .  S
N2119      H2139   1.045       .  S
N2119      H2140   1.046       .  S
C2121      C2124   1.405       .  A
C2121      C2128   1.408       .  A
N2122      H2137   1.045       .  S
N2122      H2138   1.046       .  S
C2124      C2125   1.406       .  A
C2124      H2129   1.084       .  S
C2125      C2126   1.411       .  A
C2125      N2130   1.436       .  S
C2126      C2127   1.408       .  A
C2127      C2128   1.403       .  A
C2127      H2131   1.084       .  S
C2128      N2132   1.438       .  S
N2130      H2133   1.046       .  S
N2130      H2134   1.045       .  S
N2132      H2135   1.046       .  S
N2132      H2136   1.045       .  S
C2141      C2142   1.405       .  A
C2141      C2146   1.407       .  A
C2142      C2143   1.409       .  A
C2142      N2147   1.437       .  S
C2143      C2144   1.407       .  A
C2143      H2148   1.084       .  S
C2144      C2149   1.480       .  S
C2144      C2145   1.404       .  A
C2145      C2146   1.404       .  A
C2145      N2150   1.437       .  S
C2146      H2151   1.084       .  S
N2147      H2167   1.045       .  S
N2147      H2168   1.045       .  S
C2149      C2152   1.406       .  A
C2149      C2156   1.404       .  A
N2150      H2165   1.046       .  S
N2150      H2166   1.045       .  S
C2152      C2153   1.410       .  A
C2152      H2157   1.084       .  S
C2153      C2154   1.409       .  A
C2153      N2158   1.436       .  S
C2154      C2155   1.407       .  A
C2155      C2156   1.403       .  A
C2155      H2159   1.084       .  S
C2156      N2160   1.437       .  S
N2158      H2161   1.046       .  S
N2158      H2162   1.045       .  S
N2160      H2163   1.046       .  S
N2160      H2164   1.045       .  S
C2169      C2170   1.408       .  A
C2169      C2174   1.401       .  A
C2170      C2171   1.407       .  A
C2170      N2175   1.438       .  S
C2171      C2172   1.408       .  A
C2171      H2176   1.083   1_554  S
C2172      C2177   1.493   1_554  S
C2172      C2173   1.415       .  A
C2173      C2174   1.404       .  A
C2173      N2178   1.438       .  S
C2174      H2179   1.084       .  S
N2175      H2195   1.046       .  S
N2175      H2196   1.046       .  S
C2177      C2180   1.411       .  A
C2177      C2184   1.412       .  A
N2178      H2193   1.046       .  S
N2178      H2194   1.045       .  S
C2180      C2181   1.411       .  A
C2180      H2185   1.083       .  S
C2181      C2182   1.408       .  A
C2181      N2186   1.438       .  S
C2182      C2183   1.403       .  A
C2183      C2184   1.399       .  A
C2183      H2187   1.084       .  S
C2184      N2188   1.438   1_556  S
N2186      H2189   1.046       .  S
N2186      H2190   1.046       .  S
N2188      H2191   1.046       .  S
N2188      H2192   1.045       .  S
C2197      C2198   1.413       .  A
C2197      C2202   1.406       .  A
C2198      C2199   1.403       .  A
C2198      N2203   1.438       .  S
C2199      C2200   1.404       .  A
C2199      H2204   1.083       .  S
C2200      C2205   1.493       .  S
C2200      C2201   1.414       .  A
C2201      C2202   1.411       .  A
C2201      N2206   1.438       .  S
C2202      H2207   1.084       .  S
N2203      H2223   1.046       .  S
N2203      H2224   1.046       .  S
C2205      C2208   1.411       .  A
C2205      C2212   1.410       .  A
N2206      H2221   1.046       .  S
N2206      H2222   1.046       .  S
C2208      C2209   1.414       .  A
C2208      H2213   1.083       .  S
C2209      C2210   1.408       .  A
C2209      N2214   1.437       .  S
C2210      C2211   1.405       .  A
C2211      C2212   1.399       .  A
C2211      H2215   1.084       .  S
C2212      N2216   1.439       .  S
N2214      H2217   1.046       .  S
N2214      H2218   1.046       .  S
N2216      H2219   1.046       .  S
N2216      H2220   1.046       .  S
C2225      C2226   1.409       .  A
C2225      C2230   1.406       .  A
C2226      C2227   1.406       .  A
C2226      N2231   1.438       .  S
C2227      C2228   1.405       .  A
C2227      H2232   1.084   1_565  S
C2228      C2233   1.474   1_565  S
C2228      C2229   1.403       .  A
C2229      C2230   1.400       .  A
C2229      N2234   1.437       .  S
C2230      H2235   1.084       .  S
N2231      H2251   1.046       .  S
N2231      H2252   1.046       .  S
C2233      C2236   1.407       .  A
C2233      C2240   1.402       .  A
N2234      H2249   1.046       .  S
N2234      H2250   1.046       .  S
C2236      C2237   1.406       .  A
C2236      H2241   1.084       .  S
C2237      C2238   1.406       .  A
C2237      N2242   1.437       .  S
C2238      C2239   1.408       .  A
C2239      C2240   1.398       .  A
C2239      H2243   1.084       .  S
C2240      N2244   1.438       .  S
N2242      H2245   1.046       .  S
N2242      H2246   1.046       .  S
N2244      H2247   1.046       .  S
N2244      H2248   1.045       .  S
C2253      C2254   1.412       .  A
C2253      C2258   1.402       .  A
C2254      C2255   1.404       .  A
C2254      N2259   1.438       .  S
C2255      C2256   1.401       .  A
C2255      H2260   1.084       .  S
C2256      C2261   1.487       .  S
C2256      C2257   1.413       .  A
C2257      C2258   1.410       .  A
C2257      N2262   1.437       .  S
C2258      H2263   1.084       .  S
N2259      H2279   1.046       .  S
N2259      H2280   1.046       .  S
C2261      C2264   1.399       .  A
C2261      C2268   1.415       .  A
N2262      H2277   1.046       .  S
N2262      H2278   1.046       .  S
C2264      C2265   1.403       .  A
C2264      H2269   1.084       .  S
C2265      C2266   1.418       .  A
C2265      N2270   1.439       .  S
C2266      C2267   1.402       .  A
C2267      C2268   1.409       .  A
C2267      H2271   1.084       .  S
C2268      N2272   1.437       .  S
N2270      H2273   1.046       .  S
N2270      H2274   1.045       .  S
N2272      H2275   1.046       .  S
N2272      H2276   1.046       .  S
C2281      C2282   1.415       .  A
C2281      C2286   1.407       .  A
C2282      C2283   1.399       .  A
C2282      N2287   1.432       .  S
C2283      C2284   1.398       .  A
C2283      H2288   1.084       .  S
C2284      C2289   1.473       .  S
C2284      C2285   1.407       .  A
C2285      C2286   1.403       .  A
C2285      N2290   1.438       .  S
C2286      H2291   1.083       .  S
N2287      H2307   1.046       .  S
N2287      H2308   1.046       .  S
C2289      C2292   1.401       .  A
C2289      C2296   1.407       .  A
N2290      H2305   1.046       .  S
N2290      H2306   1.046       .  S
C2292      C2293   1.404       .  A
C2292      H2297   1.084       .  S
C2293      C2294   1.412       .  A
C2293      N2298   1.438       .  S
C2294      C2295   1.404       .  A
C2295      C2296   1.400       .  A
C2295      H2299   1.084       .  S
C2296      N2300   1.438       .  S
N2298      H2301   1.046       .  S
N2298      H2302   1.046       .  S
N2300      H2303   1.046       .  S
N2300      H2304   1.046       .  S
C2309      C2310   1.412       .  A
C2309      C2314   1.404       .  A
C2310      C2311   1.405       .  A
C2310      N2315   1.438       .  S
C2311      C2312   1.400       .  A
C2311      H2316   1.084       .  S
C2312      C2317   1.472       .  S
C2312      C2313   1.406       .  A
C2313      C2314   1.404       .  A
C2313      N2318   1.438       .  S
C2314      H2319   1.084       .  S
N2315      H2335   1.045       .  S
N2315      H2336   1.046       .  S
C2317      C2320   1.400       .  A
C2317      C2324   1.406       .  A
N2318      H2333   1.045       .  S
N2318      H2334   1.045       .  S
C2320      C2321   1.403       .  A
C2320      H2325   1.084       .  S
C2321      C2322   1.412       .  A
C2321      N2326   1.438       .  S
C2322      C2323   1.406       .  A
C2323      C2324   1.402       .  A
C2323      H2327   1.084       .  S
C2324      N2328   1.438       .  S
N2326      H2329   1.045       .  S
N2326      H2330   1.046       .  S
N2328      H2331   1.046       .  S
N2328      H2332   1.046       .  S
C2337      C2338   1.415       .  A
C2337      C2342   1.404       .  A
C2338      C2339   1.404       .  A
C2338      N2343   1.438       .  S
C2339      C2340   1.399       .  A
C2339      H2344   1.084       .  S
C2340      C2345   1.468       .  S
C2340      C2341   1.407       .  A
C2341      C2342   1.400       .  A
C2341      N2346   1.439       .  S
C2342      H2347   1.084       .  S
N2343      H2363   1.046       .  S
N2343      H2364   1.046       .  S
C2345      C2348   1.389       .  A
C2345      C2352   1.410       .  A
N2346      H2361   1.046       .  S
N2346      H2362   1.044       .  S
C2348      C2349   1.393       .  A
C2348      H2353   1.085       .  S
C2349      C2350   1.426       .  A
C2349      N2354   1.440       .  S
C2350      C2351   1.406       .  A
C2351      C2352   1.409       .  A
C2351      H2355   1.083       .  S
C2352      N2356   1.438       .  S
N2354      H2357   1.046       .  S
N2354      H2358   1.042       .  S
N2356      H2359   1.046       .  S
N2356      H2360   1.044       .  S
C2365      C2366   1.407       .  A
C2365      C2370   1.407       .  A
C2366      C2367   1.407       .  A
C2366      N2371   1.437       .  S
C2367      C2368   1.404       .  A
C2367      H2372   1.084       .  S
C2368      C2373   1.475   1_545  S
C2368      C2369   1.404       .  A
C2369      C2370   1.402       .  A
C2369      N2374   1.438       .  S
C2370      H2375   1.084       .  S
N2371      H2391   1.045       .  S
N2371      H2392   1.046       .  S
C2373      C2376   1.405       .  A
C2373      C2380   1.403       .  A
N2374      H2389   1.046       .  S
N2374      H2390   1.045       .  S
C2376      C2377   1.408       .  A
C2376      H2381   1.084   1_565  S
C2377      C2378   1.408       .  A
C2377      N2382   1.437       .  S
C2378      C2379   1.408       .  A
C2379      C2380   1.401       .  A
C2379      H2383   1.084       .  S
C2380      N2384   1.438       .  S
N2382      H2385   1.046       .  S
N2382      H2386   1.045       .  S
N2384      H2387   1.046       .  S
N2384      H2388   1.045       .  S
C2393      C2394   1.414   1_554  A
C2393      C2398   1.403       .  A
C2394      C2395   1.405       .  A
C2394      N2399   1.433       .  S
C2395      C2396   1.400       .  A
C2395      H2400   1.084       .  S
C2396      C2401   1.487       .  S
C2396      C2397   1.413   1_556  A
C2397      C2398   1.409       .  A
C2397      N2402   1.438       .  S
C2398      H2403   1.084       .  S
N2399      H2419   1.046       .  S
N2399      H2420   1.045       .  S
C2401      C2404   1.401       .  A
C2401      C2408   1.412       .  A
N2402      H2417   1.046       .  S
N2402      H2418   1.045       .  S
C2404      C2405   1.404       .  A
C2404      H2409   1.084       .  S
C2405      C2406   1.411       .  A
C2405      N2410   1.438       .  S
C2406      C2407   1.405       .  A
C2407      C2408   1.413       .  A
C2407      H2411   1.084       .  S
C2408      N2412   1.437       .  S
N2410      H2413   1.046       .  S
N2410      H2414   1.045       .  S
N2412      H2415   1.046       .  S
N2412      H2416   1.046       .  S
C2421      C2422   1.422       .  A
C2421      C2426   1.411       .  A
C2422      C2423   1.402       .  A
C2422      N2427   1.433       .  S
C2423      C2424   1.397       .  A
C2423      H2428   1.084       .  S
C2424      C2429   1.488       .  S
C2424      C2425   1.410       .  A
C2425      C2426   1.413       .  A
C2425      N2430   1.437       .  S
C2426      H2431   1.083       .  S
N2427      H2447   1.046       .  S
N2427      H2448   1.045       .  S
C2429      C2432   1.399       .  A
C2429      C2436   1.409       .  A
N2430      H2445   1.046       .  S
N2430      H2446   1.046       .  S
C2432      C2433   1.410       .  A
C2432      H2437   1.084       .  S
C2433      C2434   1.420       .  A
C2433      N2438   1.436       .  S
C2434      C2435   1.408       .  A
C2435      C2436   1.410       .  A
C2435      H2439   1.083       .  S
C2436      N2440   1.437       .  S
N2438      H2441   1.046       .  S
N2438      H2442   1.045       .  S
N2440      H2443   1.046       .  S
N2440      H2444   1.046       .  S
C2449      C2450   1.412       .  A
C2449      C2454   1.406       .  A
C2450      C2451   1.401       .  A
C2450      N2455   1.438       .  S
C2451      C2452   1.402       .  A
C2451      H2456   1.084       .  S
C2452      C2457   1.488       .  S
C2452      C2453   1.413       .  A
C2453      C2454   1.410       .  A
C2453      N2458   1.438       .  S
C2454      H2459   1.084       .  S
N2455      H2475   1.046       .  S
N2455      H2476   1.046       .  S
C2457      C2460   1.407       .  A
C2457      C2464   1.410       .  A
N2458      H2473   1.046       .  S
N2458      H2474   1.046       .  S
C2460      C2461   1.410       .  A
C2460      H2465   1.083       .  S
C2461      C2462   1.411       .  A
C2461      N2466   1.438       .  S
C2462      C2463   1.405       .  A
C2463      C2464   1.400       .  A
C2463      H2467   1.084       .  S
C2464      N2468   1.438       .  S
N2466      H2469   1.046       .  S
N2466      H2470   1.046       .  S
N2468      H2471   1.046       .  S
N2468      H2472   1.045       .  S
C2477      C2478   1.410       .  A
C2477      C2482   1.403       .  A
C2478      C2479   1.403       .  A
C2478      N2483   1.438       .  S
C2479      C2480   1.403       .  A
C2479      H2484   1.084       .  S
C2480      C2485   1.487       .  S
C2480      C2481   1.413       .  A
C2481      C2482   1.408       .  A
C2481      N2486   1.437       .  S
C2482      H2487   1.084       .  S
N2483      H2503   1.046       .  S
N2483      H2504   1.046       .  S
C2485      C2488   1.405       .  A
C2485      C2492   1.409       .  A
N2486      H2501   1.046       .  S
N2486      H2502   1.045       .  S
C2488      C2489   1.408       .  A
C2488      H2493   1.084       .  S
C2489      C2490   1.413       .  A
C2489      N2494   1.437       .  S
C2490      C2491   1.409       .  A
C2491      C2492   1.404       .  A
C2491      H2495   1.083       .  S
C2492      N2496   1.438       .  S
N2494      H2497   1.046       .  S
N2494      H2498   1.046       .  S
N2496      H2499   1.046       .  S
N2496      H2500   1.046       .  S
C2505      C2506   1.419       .  A
C2505      C2510   1.403       .  A
C2506      C2507   1.402       .  A
C2506      N2511   1.439       .  S
C2507      C2508   1.398       .  A
C2507      H2512   1.084       .  S
C2508      C2513   1.483   1_655  S
C2508      C2509   1.413       .  A
C2509      C2510   1.411       .  A
C2509      N2514   1.438   1_655  S
C2510      H2515   1.084       .  S
N2511      H2531   1.044       .  S
N2511      H2532   1.046       .  S
C2513      C2516   1.397       .  A
C2513      C2520   1.415       .  A
N2514      H2529   1.046       .  S
N2514      H2530   1.045       .  S
C2516      C2517   1.401       .  A
C2516      H2521   1.084       .  S
C2517      C2518   1.412       .  A
C2517      N2522   1.433       .  S
C2518      C2519   1.402       .  A
C2519      C2520   1.413       .  A
C2519      H2523   1.084       .  S
C2520      N2524   1.438       .  S
N2522      H2525   1.046       .  S
N2522      H2526   1.046       .  S
N2524      H2527   1.046       .  S
N2524      H2528   1.045   1_455  S
C2533      C2534   1.415       .  A
C2533      C2538   1.404       .  A
C2534      C2535   1.406       .  A
C2534      N2539   1.438       .  S
C2535      C2536   1.401       .  A
C2535      H2540   1.084       .  S
C2536      C2541   1.482       .  S
C2536      C2537   1.410       .  A
C2537      C2538   1.405       .  A
C2537      N2542   1.438       .  S
C2538      H2543   1.084       .  S
N2539      H2559   1.046       .  S
N2539      H2560   1.046       .  S
C2541      C2544   1.398       .  A
C2541      C2548   1.411       .  A
N2542      H2557   1.046       .  S
N2542      H2558   1.046       .  S
C2544      C2545   1.402       .  A
C2544      H2549   1.084       .  S
C2545      C2546   1.418       .  A
C2545      N2550   1.438       .  S
C2546      C2547   1.405       .  A
C2547      C2548   1.409       .  A
C2547      H2551   1.084       .  S
C2548      N2552   1.437       .  S
N2550      H2553   1.046       .  S
N2550      H2554   1.046       .  S
N2552      H2555   1.046       .  S
N2552      H2556   1.046       .  S
C2561      C2562   1.417       .  A
C2561      C2566   1.409       .  A
C2562      C2563   1.405       .  A
C2562      N2567   1.437       .  S
C2563      C2564   1.402       .  A
C2563      H2568   1.084       .  S
C2564      C2569   1.481       .  S
C2564      C2565   1.407       .  A
C2565      C2566   1.402       .  A
C2565      N2570   1.438       .  S
C2566      H2571   1.083       .  S
N2567      H2587   1.046       .  S
N2567      H2588   1.046       .  S
C2569      C2572   1.405       .  A
C2569      C2576   1.408       .  A
N2570      H2585   1.046       .  S
N2570      H2586   1.046       .  S
C2572      C2573   1.406       .  A
C2572      H2577   1.084       .  S
C2573      C2574   1.410       .  A
C2573      N2578   1.437       .  S
C2574      C2575   1.406       .  A
C2575      C2576   1.400       .  A
C2575      H2579   1.084       .  S
C2576      N2580   1.438       .  S
N2578      H2581   1.046       .  S
N2578      H2582   1.046       .  S
N2580      H2583   1.046       .  S
N2580      H2584   1.045       .  S
C2589      C2590   1.420       .  A
C2589      C2594   1.409       .  A
C2590      C2591   1.406       .  A
C2590      N2595   1.439       .  S
C2591      C2592   1.401       .  A
C2591      H2596   1.084       .  S
C2592      C2597   1.493       .  S
C2592      C2593   1.412       .  A
C2593      C2594   1.412       .  A
C2593      N2598   1.437       .  S
C2594      H2599   1.083       .  S
N2595      H2615   1.046       .  S
N2595      H2616   1.046   1_554  S
C2597      C2600   1.402       .  A
C2597      C2604   1.411   1_554  A
N2598      H2613   1.046       .  S
N2598      H2614   1.046       .  S
C2600      C2601   1.410       .  A
C2600      H2605   1.084       .  S
C2601      C2602   1.421   1_554  A
C2601      N2606   1.438       .  S
C2602      C2603   1.407       .  A
C2603      C2604   1.409       .  A
C2603      H2607   1.083       .  S
C2604      N2608   1.438       .  S
N2606      H2609   1.046       .  S
N2606      H2610   1.045       .  S
N2608      H2611   1.045       .  S
N2608      H2612   1.046       .  S
C2617      C2618   1.414       .  A
C2617      C2622   1.403       .  A
C2618      C2619   1.397       .  A
C2618      N2623   1.438       .  S
C2619      C2620   1.398       .  A
C2619      H2624   1.084       .  S
C2620      C2625   1.483       .  S
C2620      C2621   1.414       .  A
C2621      C2622   1.412       .  A
C2621      N2626   1.437       .  S
C2622      H2627   1.084       .  S
N2623      H2643   1.046       .  S
N2623      H2644   1.046       .  S
C2625      C2628   1.404       .  A
C2625      C2632   1.409       .  A
N2626      H2641   1.046       .  S
N2626      H2642   1.046       .  S
C2628      C2629   1.410       .  A
C2628      H2633   1.084       .  S
C2629      C2630   1.416       .  A
C2629      N2634   1.438       .  S
C2630      C2631   1.405       .  A
C2631      C2632   1.399       .  A
C2631      H2635   1.084       .  S
C2632      N2636   1.439       .  S
N2634      H2637   1.046       .  S
N2634      H2638   1.045       .  S
N2636      H2639   1.045       .  S
N2636      H2640   1.046       .  S
C2645      C2646   1.418       .  A
C2645      C2650   1.415       .  A
C2646      C2647   1.412       .  A
C2646      N2651   1.437       .  S
C2647      C2648   1.404       .  A
C2647      H2652   1.084       .  S
C2648      C2653   1.481       .  S
C2648      C2649   1.402       .  A
C2649      C2650   1.401       .  A
C2649      N2654   1.438       .  S
C2650      H2655   1.083       .  S
N2651      H2671   1.045       .  S
N2651      H2672   1.046       .  S
C2653      C2656   1.404       .  A
C2653      C2660   1.407       .  A
N2654      H2669   1.046       .  S
N2654      H2670   1.046       .  S
C2656      C2657   1.405       .  A
C2656      H2661   1.084       .  S
C2657      C2658   1.406       .  A
C2657      N2662   1.431       .  S
C2658      C2659   1.406       .  A
C2659      C2660   1.406       .  A
C2659      H2663   1.082       .  S
C2660      N2664   1.438       .  S
N2662      H2665   1.046       .  S
N2662      H2666   1.045       .  S
N2664      H2667   1.046       .  S
N2664      H2668   1.046       .  S
C2673      C2674   1.408       .  A
C2673      C2678   1.409       .  A
C2674      C2675   1.410       .  A
C2674      N2679   1.437       .  S
C2675      C2676   1.406       .  A
C2675      H2680   1.084   1_655  S
C2676      C2681   1.485   1_655  S
C2676      C2677   1.406       .  A
C2677      C2678   1.406       .  A
C2677      N2682   1.438       .  S
C2678      H2683   1.084       .  S
N2679      H2699   1.045       .  S
N2679      H2700   1.046       .  S
C2681      C2684   1.408       .  A
C2681      C2688   1.405       .  A
N2682      H2697   1.046       .  S
N2682      H2698   1.046       .  S
C2684      C2685   1.412       .  A
C2684      H2689   1.083       .  S
C2685      C2686   1.410       .  A
C2685      N2690   1.437       .  S
C2686      C2687   1.409       .  A
C2687      C2688   1.401       .  A
C2687      H2691   1.084       .  S
C2688      N2692   1.438       .  S
N2690      H2693   1.046       .  S
N2690      H2694   1.046       .  S
N2692      H2695   1.046       .  S
N2692      H2696   1.045       .  S
