geometry optimzed in LAMMPS
_audit_creation_date              2020-12-01 
_audit_creation_method            'lammps2cif' 
_symmetry_space_group_name_H-M    'P1' 
_symmetry_Int_Tables_number       1 
_symmetry_cell_setting            triclinic 
loop_ 
_symmetry_equiv_pos_as_xyz 
  x,y,z 
_cell_length_a                    33.32630785 
_cell_length_b                    33.33142056069738 
_cell_length_c                    28.991358675246776 
_cell_angle_alpha                 90.04803841980065 
_cell_angle_beta                  89.98672553181984 
_cell_angle_gamma                 120.7822307159734 
loop_ 
_atom_site_label 
_atom_site_type_symbol 
_atom_site_fract_x 
_atom_site_fract_y 
_atom_site_fract_z 
_atom_site_charge 
C1          C  0.42100236  0.92915450  0.06676701    -0.10300
C2          C  0.45019430  0.91809824  0.09118694    -0.04200
C3          C  0.49775549  0.93882802  0.08131077    -0.10300
C4          C  0.51744464  0.97199917  0.04547426     0.10700
C5          C  0.48844205  0.98366158  0.01995257    -0.02100
C6          C  0.44007901  0.96253132  0.03082869     0.10500
C7          C  0.41229801  0.97485932  0.00511992    -0.12100
C8          C  0.43158122  0.00755364  0.96951501    -0.12100
C9          C  0.47929099  0.02900320  0.95841289     0.10500
C10         C  0.50793499  0.01656114  0.98349446    -0.02100
C11         C  0.56529904  0.99409559  0.03484470    -0.12200
C12         C  0.58410549  0.02535184  0.99825581    -0.12200
C13         C  0.55603353  0.03676620  0.97199625     0.10700
C14         C  0.57480639  0.06845068  0.93485142    -0.10300
C15         C  0.54644100  0.08100312  0.91134790    -0.04200
C16         C  0.49935613  0.06220588  0.92249238    -0.10300
H17         H  0.37537704  0.95914294  0.01229515     0.07900
H18         H  0.40871652  0.01572254  0.95048780     0.07900
H19         H  0.58862571  0.98710463  0.05454429     0.08100
H20         H  0.62098924  0.04090618  0.99091902     0.08100
H21         H  0.43542925  0.89257571  0.11879267     0.04500
H22         H  0.56147451  0.10607549  0.88337787     0.04500
O23         O  0.52181595  0.73309201  0.19389146    -0.71200
O24         O  0.51537126  0.78909589  0.30492121    -0.71400
O25         O  0.51809434  0.80912858  0.21556103    -0.71300
O26         O  0.51902174  0.71281311  0.28328673    -0.71300
O27         O  0.59387310  0.75724426  0.29390212    -0.71300
O28         O  0.59386456  0.84588614  0.21065616    -0.71300
O29         O  0.59048370  0.83619762  0.30307574    -0.71200
O30         O  0.59708988  0.76674063  0.20140946    -0.71400
V31         V  0.52002743  0.76180040  0.24948903     1.35200
V32         V  0.59266790  0.80089599  0.25222179     1.35200
C33         C  0.56015767  0.73846742  0.17985925     0.78000
C34         C  0.55144248  0.82385428  0.32168205     0.78100
C35         C  0.55562094  0.84311906  0.20040844     0.77900
C36         C  0.55631780  0.71905590  0.30118587     0.77900
O37         O  0.41805109  0.17278513  0.70186960    -0.71200
O38         O  0.41606374  0.24839797  0.80025949    -0.71400
O39         O  0.41679538  0.25320144  0.70785489    -0.71300
O40         O  0.41662594  0.16754152  0.79461566    -0.71300
O41         O  0.49224770  0.20263160  0.78895184    -0.71300
O42         O  0.49214628  0.29664250  0.71545253    -0.71300
O43         O  0.49138559  0.28163624  0.80588848    -0.71200
O44         O  0.49334875  0.21783292  0.69817842    -0.71400
V45         V  0.41816092  0.21109637  0.75117729     1.35200
V46         V  0.49088157  0.24889988  0.75208571     1.35200
C47         C  0.45636100  0.18301783  0.68275009     0.78000
C48         C  0.45374584  0.27811196  0.81986317     0.78100
C49         C  0.45440432  0.29062957  0.69882784     0.77900
C50         C  0.45445918  0.16964724  0.80507377     0.77900
O51         O  0.72861384  0.19861106  0.80261028    -0.71200
O52         O  0.79525497  0.26030514  0.69457833    -0.71400
O53         O  0.71613257  0.18062127  0.71181126    -0.71300
O54         O  0.80788193  0.27831651  0.78481725    -0.71300
O55         O  0.84206755  0.23835468  0.79593909    -0.71300
O56         O  0.75808971  0.14772226  0.70948778    -0.71300
O57         O  0.83956679  0.23063033  0.70303068    -0.71200
O58         O  0.76077489  0.15603300  0.80250213    -0.71400
V59         V  0.76264113  0.22863869  0.74859592     1.35200
V60         V  0.79948727  0.19370360  0.75266806     1.35200
C61         C  0.73235120  0.16612123  0.82047540     0.78000
C62         C  0.82998962  0.25774330  0.68132707     0.78100
C63         C  0.72241500  0.14880569  0.69650308     0.77900
C64         C  0.83992990  0.27457130  0.80363901     0.77900
O65         O  0.15806814  0.75702860  0.29923520    -0.71200
O66         O  0.23632564  0.83515200  0.20120776    -0.71400
O67         O  0.15478929  0.75281537  0.20631782    -0.71300
O68         O  0.24007855  0.84010682  0.29447870    -0.71300
O69         O  0.28229207  0.80777670  0.28812306    -0.71300
O70         O  0.18854142  0.71204627  0.21428015    -0.71300
O71         O  0.26791248  0.79220941  0.19726638    -0.71200
O72         O  0.20240834  0.72710612  0.30497059    -0.71400
V73         V  0.19795959  0.79574418  0.25041063     1.35200
V74         V  0.23458792  0.76052982  0.25120633     1.35200
C75         C  0.16756880  0.72904660  0.31921482     0.78000
C76         C  0.26457429  0.82577182  0.18156792     0.78100
C77         C  0.15661314  0.71678258  0.19659727     0.77900
C78         C  0.27679570  0.83968446  0.30472948     0.77900
C79         C  0.92412528  0.49567572  0.93698942    -0.10300
C80         C  0.91293844  0.45438131  0.91418965    -0.04200
C81         C  0.93562814  0.42980926  0.92361287    -0.10300
C82         C  0.97054522  0.44637911  0.95800798     0.10700
C83         C  0.98138044  0.48742690  0.98296815    -0.02100
C84         C  0.95826706  0.51236169  0.97235116     0.10500
C85         C  0.96947404  0.55267091  0.99769108    -0.12100
C86         C  0.00270346  0.56835808  0.03288086    -0.12100
C87         C  0.02620604  0.54452034  0.04364857     0.10500
C88         C  0.01563040  0.50372261  0.01839237    -0.02100
C89         C  0.99530948  0.42357739  0.96760422    -0.12200
C90         C  0.02880096  0.43948972  0.00248734    -0.12200
C91         C  0.03905542  0.47905104  0.02867003     0.10700
C92         C  0.07256609  0.49520434  0.06455506    -0.10300
C93         C  0.08230328  0.53531223  0.08894542    -0.04200
C94         C  0.05963930  0.55988114  0.07944336    -0.10300
H95         H  0.95220047  0.57208438  0.99074547     0.07900
H96         H  0.00970700  0.59931601  0.05177540     0.07900
H97         H  0.98888257  0.39307242  0.94822325     0.08100
H98         H  0.04670882  0.42058405  0.00879680     0.08100
H99         H  0.88649693  0.44154787  0.88734756     0.04500
H100        H  0.10797553  0.54754884  0.11647847     0.04500
C101        C  0.93250627  0.48832591  0.57836655    -0.10300
C102        C  0.91668812  0.44217745  0.59081085    -0.04200
C103        C  0.93052134  0.41471447  0.56719095    -0.10300
C104        C  0.96241988  0.43444841  0.53004075     0.10700
C105        C  0.97940045  0.48175031  0.51711015    -0.02100
C106        C  0.96437518  0.50882570  0.54136508     0.10500
C107        C  0.98139350  0.55534772  0.52786643    -0.12100
C108        C  0.01273637  0.57517845  0.49112111    -0.12100
C109        C  0.02784870  0.54906099  0.46638095     0.10500
C110        C  0.01101086  0.50182485  0.47950461    -0.02100
C111        C  0.97728309  0.40823310  0.50517667    -0.12200
C112        C  0.00848386  0.42798037  0.46843097    -0.12200
C113        C  0.02583472  0.47461505  0.45517632     0.10700
C114        C  0.05738521  0.49482103  0.41793131    -0.10300
C115        C  0.07319054  0.54096597  0.40535095    -0.04200
C116        C  0.05949411  0.56859212  0.42890304    -0.10300
H117        H  0.97062192  0.57679430  0.54579737     0.07900
H118        H  0.02495868  0.61113375  0.48202929     0.07900
H119        H  0.96480085  0.37215983  0.51400175     0.08100
H120        H  0.01882136  0.40630734  0.45027243     0.08100
H121        H  0.89195972  0.42681507  0.61905374     0.04500
H122        H  0.09769256  0.55616356  0.37692069     0.04500
O123        O  0.29043325  0.48222087  0.21227348    -0.71200
O124        O  0.19622409  0.48218045  0.28531625    -0.71400
O125        O  0.27427893  0.48074945  0.30284393    -0.71300
O126        O  0.21229759  0.48333092  0.19442183    -0.71300
O127        O  0.16798435  0.40784744  0.19648021    -0.71300
O128        O  0.24018842  0.40527502  0.29816778    -0.71300
O129        O  0.15957546  0.40641938  0.28941047    -0.71200
O130        O  0.24822486  0.40674485  0.20519605    -0.71400
V131        V  0.24247454  0.48056914  0.24868438     1.35200
V132        V  0.20461382  0.40780445  0.24738832     1.35200
C133        C  0.28494828  0.44486155  0.19529817     0.78000
C134        C  0.16258345  0.44456562  0.30082457     0.78100
C135        C  0.26928928  0.44297115  0.31820583     0.77900
C136        C  0.17896654  0.44631932  0.17732284     0.77900
O137        O  0.83896714  0.58189944  0.70911510    -0.71200
O138        O  0.75815807  0.59641689  0.79153715    -0.71400
O139        O  0.83281396  0.58544124  0.80171712    -0.71300
O140        O  0.76333570  0.59203709  0.69938332    -0.71300
O141        O  0.71985040  0.51638330  0.70020377    -0.71300
O142        O  0.78467469  0.51061441  0.80490235    -0.71300
O143        O  0.71107803  0.52111339  0.79140786    -0.71200
O144        O  0.79378514  0.50646887  0.71293404    -0.71400
V145        V  0.79757307  0.58759132  0.75042349     1.35200
V146        V  0.75337962  0.51520927  0.75238436     1.35200
C147        C  0.83009821  0.54166670  0.69715421     0.78000
C148        C  0.72044970  0.56111745  0.80462568     0.78100
C149        C  0.81986549  0.54660081  0.82120329     0.77900
C150        C  0.72946766  0.55493603  0.68260977     0.77900
C151        C  0.44005766  0.50577378  0.07548294    -0.10300
C152        C  0.46741518  0.55268238  0.08836151    -0.04200
C153        C  0.50834568  0.58374242  0.06494059    -0.10300
C154        C  0.52262670  0.56779129  0.02676408     0.10700
C155        C  0.49524505  0.52019235  0.01299506    -0.02100
C156        C  0.45414817  0.48885128  0.03780005     0.10500
C157        C  0.42883490  0.44155439  0.02470814    -0.12100
C158        C  0.44295761  0.42535231  0.98727421    -0.12100
C159        C  0.48261533  0.45597550  0.96139558     0.10500
C160        C  0.50910382  0.50388951  0.97442687    -0.02100
C161        C  0.56316235  0.59810636  0.00185515    -0.12200
C162        C  0.57664567  0.58215868  0.96385835    -0.12200
C163        C  0.55010266  0.53533725  0.94960420     0.10700
C164        C  0.56340713  0.51896098  0.91107136    -0.10300
C165        C  0.53636786  0.47220811  0.89800603    -0.04200
C166        C  0.49730826  0.44015597  0.92324686    -0.10300
H167        H  0.39795789  0.41663589  0.04351276     0.07900
H168        H  0.42238346  0.38864678  0.97852558     0.07900
H169        H  0.58463559  0.63451458  0.01145558     0.08100
H170        H  0.60793363  0.60690393  0.94546874     0.08100
H171        H  0.45641878  0.56548407  0.11728642     0.04500
H172        H  0.54775577  0.45975167  0.86908676     0.04500
C173        C  0.50321502  0.56410114  0.41915170    -0.10300
C174        C  0.45594475  0.53612347  0.40776862    -0.04200
C175        C  0.42546751  0.49612154  0.43266819    -0.10300
C176        C  0.44266355  0.48320966  0.47096840     0.10700
C177        C  0.49076776  0.51104996  0.48315039    -0.02100
C178        C  0.52131561  0.55136975  0.45687987     0.10500
C179        C  0.56893655  0.57738894  0.46876330    -0.12100
C180        C  0.58608501  0.56553339  0.50704318    -0.12100
C181        C  0.55642049  0.52656342  0.53409158     0.10500
C182        C  0.50836640  0.49860505  0.52174635    -0.02100
C183        C  0.41311818  0.44396483  0.49783515    -0.12200
C184        C  0.43041772  0.43175459  0.53574698    -0.12200
C185        C  0.47794569  0.45804146  0.54777099     0.10700
C186        C  0.49618413  0.44529785  0.58533836    -0.10300
C187        C  0.54318096  0.47379151  0.59725660    -0.04200
C188        C  0.57339194  0.51403608  0.57283009    -0.10300
H189        H  0.59337716  0.60735446  0.44855362     0.07900
H190        H  0.62284693  0.58696749  0.51522908     0.07900
H191        H  0.37633415  0.42251817  0.48977622     0.08100
H192        H  0.40619030  0.40144845  0.55569763     0.08100
H193        H  0.44213018  0.54620854  0.37901988     0.04500
H194        H  0.55720707  0.46366048  0.62580553     0.04500
C195        C  0.49578193  0.92591728  0.43459574    -0.10300
C196        C  0.45524782  0.91733805  0.41192231    -0.04200
C197        C  0.43155562  0.94048234  0.42355389    -0.10300
C198        C  0.44890810  0.97363933  0.45991581     0.10700
C199        C  0.49006480  0.98259964  0.48369219    -0.02100
C200        C  0.51379752  0.95894223  0.47068837     0.10500
C201        C  0.55450563  0.96849328  0.49436473    -0.12100
C202        C  0.57211200  0.00106462  0.52993000    -0.12100
C203        C  0.54926983  0.02474497  0.54347918     0.10500
C204        C  0.50776949  0.01547212  0.52039011    -0.02100
C205        C  0.42698643  0.99850822  0.47271613    -0.12200
C206        C  0.44428445  0.03068116  0.50903548    -0.12200
C207        C  0.48437345  0.03943192  0.53355399     0.10700
C208        C  0.50258997  0.07216799  0.57028557    -0.10300
C209        C  0.54317486  0.08014175  0.59282934    -0.04200
C210        C  0.56695990  0.05766213  0.57955243    -0.10300
H211        H  0.57305913  0.95073035  0.48567184     0.07900
H212        H  0.60369836  0.00731043  0.54703654     0.07900
H213        H  0.39620502  0.99321543  0.45466826     0.08100
H214        H  0.42613121  0.04887766  0.51763016     0.08100
H215        H  0.44188626  0.89198975  0.38404279     0.04500
H216        H  0.55723784  0.10530589  0.62082461     0.04500
C217        C  0.68717743  0.56550238  0.83425412     0.00400
C218        C  0.64945279  0.56597266  0.81343217    -0.11500
C219        C  0.61023950  0.55672241  0.83949465     0.02600
C220        C  0.60864932  0.54657622  0.88691311     0.00300
C221        C  0.64841774  0.55101576  0.90842909    -0.11400
C222        C  0.68762477  0.56034981  0.88240092     0.02500
H223        H  0.64922377  0.57022764  0.77635180     0.15500
H224        H  0.64719730  0.54296747  0.94483835     0.15500
C225        C  0.72640603  0.56095856  0.90521976     0.37100
C226        C  0.57062748  0.55426515  0.81646123     0.37100
N227        N  0.75755569  0.56171362  0.92368832    -0.43200
N228        N  0.53892004  0.55243882  0.79805661    -0.43200
C229        C  0.62281409  0.53860217  0.58872995     0.00400
C230        C  0.64830903  0.51668239  0.57937846    -0.11500
C231        C  0.68530021  0.52374928  0.60786569     0.02600
C232        C  0.69936409  0.55548548  0.64515344     0.00300
C233        C  0.67713955  0.58133232  0.65143193    -0.11400
C234        C  0.63830839  0.57224024  0.62433945     0.02500
H235        H  0.63577396  0.48981848  0.55297463     0.15500
H236        H  0.68692321  0.60504039  0.68051118     0.15500
C237        C  0.61162400  0.59361591  0.63711787     0.37100
C238        C  0.70511399  0.49461650  0.60042897     0.37100
N239        N  0.59000729  0.61043534  0.64763908    -0.43200
N240        N  0.71973584  0.47020884  0.59414507    -0.43200
C241        C  0.39706446  0.47680349  0.10311935     0.00400
C242        C  0.40241981  0.47221752  0.15045593    -0.11500
C243        C  0.36509641  0.45831283  0.18095806     0.02600
C244        C  0.32091496  0.44713849  0.16402178     0.00300
C245        C  0.31441804  0.44779832  0.11624804    -0.11400
C246        C  0.35223601  0.46303500  0.08574444     0.02500
H247        H  0.43690041  0.48331103  0.16404955     0.15500
H248        H  0.28072291  0.44011797  0.10313829     0.15500
C249        C  0.34517022  0.46838116  0.03754282     0.37100
C250        C  0.37428607  0.45969286  0.22971498     0.37100
N251        N  0.33957382  0.47267024  0.99888092    -0.43200
N252        N  0.38295314  0.46166698  0.26857121    -0.43200
C253        C  0.37583427  0.47108053  0.41701577     0.00400
C254        C  0.35949517  0.43173637  0.38830419    -0.11500
C255        C  0.32075809  0.41796449  0.35910111     0.02600
C256        C  0.29888188  0.44483143  0.35757694     0.00300
C257        C  0.31203051  0.48062507  0.39019904    -0.11400
C258        C  0.34982684  0.49361374  0.41988521     0.02500
H259        H  0.37934898  0.41428406  0.38578658     0.15500
H260        H  0.29474082  0.50073427  0.39034709     0.15500
C261        C  0.36426333  0.53328137  0.44993374     0.37100
C262        C  0.30768786  0.37956785  0.32769360     0.37100
N263        N  0.37600062  0.56515108  0.47392912    -0.43200
N264        N  0.29746780  0.34892656  0.30240059    -0.43200
C265        C  0.12867243  0.44637004  0.33223645     0.00400
C266        C  0.13953587  0.45419106  0.37937964    -0.11500
C267        C  0.11411652  0.46639449  0.40897231     0.02600
C268        C  0.07687400  0.47046255  0.39143686     0.00300
C269        C  0.06449874  0.46017696  0.34484309    -0.11400
C270        C  0.09016812  0.44848859  0.31519586     0.02500
H271        H  0.16966961  0.45352973  0.39250687     0.15500
H272        H  0.03651852  0.46420648  0.33101014     0.15500
C273        C  0.07808578  0.44203522  0.26694338     0.37100
C274        C  0.12919717  0.47836655  0.45623241     0.37100
N275        N  0.06757252  0.43721204  0.22844685    -0.43200
N276        N  0.14120554  0.48811270  0.49412440    -0.43200
C277        C  0.91144957  0.51171478  0.60377686     0.00400
C278        C  0.93058253  0.53297893  0.64638351    -0.11500
C279        C  0.90551167  0.54499429  0.67671801     0.02600
C280        C  0.86044818  0.53534555  0.66451625     0.00300
C281        C  0.84224404  0.51575986  0.62124976    -0.11400
C282        C  0.86721851  0.50390226  0.59091922     0.02500
H283        H  0.96401787  0.53783431  0.65696950     0.15500
H284        H  0.80776122  0.50855745  0.61164892     0.15500
C285        C  0.84569378  0.48119567  0.54791446     0.37100
C286        C  0.92530978  0.56404708  0.72130680     0.37100
N287        N  0.82845467  0.46292935  0.51347235    -0.43200
N288        N  0.94152364  0.57921332  0.75699783    -0.43200
C289        C  0.15235685  0.44927695  0.13758340     0.00400
C290        C  0.10350228  0.42034942  0.13654388    -0.11500
C291        C  0.07615541  0.43178243  0.10882710     0.02600
C292        C  0.09793144  0.47156168  0.08014570     0.00300
C293        C  0.14680552  0.49626502  0.07634713    -0.11400
C294        C  0.17406709  0.48555498  0.10472666     0.02500
H295        H  0.08642911  0.39156329  0.16069092     0.15500
H296        H  0.16381611  0.52655470  0.05393886     0.15500
C297        C  0.22429885  0.51351556  0.10073579     0.37100
C298        C  0.02604641  0.40541386  0.11415711     0.37100
N299        N  0.26454337  0.53576575  0.09749229    -0.43200
N300        N  0.98586503  0.38446323  0.11842314    -0.43200
C301        C  0.84614304  0.54204038  0.86053216     0.00400
C302        C  0.89511491  0.57017361  0.86170293    -0.11500
C303        C  0.92187538  0.55866529  0.89030390     0.02600
C304        C  0.89952356  0.51973213  0.92004231     0.00300
C305        C  0.85059714  0.49542353  0.92304900    -0.11400
C306        C  0.82386741  0.50573453  0.89341206     0.02500
H307        H  0.91270592  0.59867803  0.83737922     0.15500
H308        H  0.83310440  0.46541333  0.94575441     0.15500
C309        C  0.77361851  0.47686626  0.89612065     0.37100
C310        C  0.97197383  0.58404631  0.88488143     0.37100
N311        N  0.73337843  0.45361387  0.89841235    -0.43200
N312        N  0.01213662  0.60417936  0.88045509    -0.43200
C313        C  0.31340440  0.87552350  0.33475528     0.00400
C314        C  0.30599457  0.87375460  0.38258101    -0.11500
C315        C  0.34368483  0.89895544  0.41300285     0.02600
C316        C  0.38924357  0.92770066  0.39533639     0.00300
C317        C  0.39534582  0.93311636  0.34732309    -0.11400
C318        C  0.35836364  0.90636966  0.31714047     0.02500
H319        H  0.27159344  0.84960362  0.39631999     0.15500
H320        H  0.43030707  0.95453105  0.33343237     0.15500
C321        C  0.36856020  0.90800513  0.26853364     0.37100
C322        C  0.33557538  0.89113643  0.46193681     0.37100
N323        N  0.37756861  0.90919545  0.22983186    -0.43200
N324        N  0.32916135  0.88498180  0.50120351    -0.43200
C325        C  0.07332955  0.60176746  0.10822447     0.00400
C326        C  0.10208564  0.64615342  0.08890661    -0.11500
C327        C  0.12675908  0.68546703  0.11730679     0.02600
C328        C  0.12268099  0.68029621  0.16562431     0.00300
C329        C  0.09130228  0.63663745  0.18471687    -0.11400
C330        C  0.06644114  0.59748206  0.15644055     0.02500
H331        H  0.10792836  0.64948868  0.05199036     0.15500
H332        H  0.08830502  0.63264387  0.22187938     0.15500
C333        C  0.03663869  0.55261257  0.17780716     0.37100
C334        C  0.15913534  0.72980531  0.09640455     0.37100
N335        N  0.01290895  0.51662294  0.19488466    -0.43200
N336        N  0.18510466  0.76530255  0.07958986    -0.43200
C337        C  0.13772680  0.69692069  0.35653176     0.00400
C338        C  0.08899006  0.67060277  0.35053596    -0.11500
C339        C  0.06109941  0.63103258  0.37802145     0.02600
C340        C  0.08182135  0.61799299  0.41286295     0.00300
C341        C  0.12960285  0.64747526  0.42212973    -0.11400
C342        C  0.15759656  0.68632634  0.39420970     0.02500
H343        H  0.07324356  0.67834419  0.32177062     0.15500
H344        H  0.14592229  0.63757196  0.44858612     0.15500
C345        C  0.20717107  0.71324319  0.40328740     0.37100
C346        C  0.01218029  0.60177631  0.36704934     0.37100
N347        N  0.24692914  0.73481073  0.41036420    -0.43200
N348        N  0.97294777  0.57826136  0.35828924    -0.43200
C349        C  0.61184279  0.07240528  0.60307418     0.00400
C350        C  0.61148903  0.05176574  0.64531544    -0.11500
C351        C  0.65030612  0.07327296  0.67475255     0.02600
C352        C  0.68955573  0.11633411  0.66203499     0.00300
C353        C  0.69151791  0.13432247  0.61788048    -0.11400
C354        C  0.65313263  0.11249831  0.58821130     0.02500
H355        H  0.57984848  0.02059898  0.65654567     0.15500
H356        H  0.72175086  0.16743116  0.60795375     0.15500
C357        C  0.65550497  0.13387744  0.54423287     0.37100
C358        C  0.64782477  0.05194882  0.71871110     0.37100
N359        N  0.65753956  0.15098552  0.50892656    -0.43200
N360        N  0.64524094  0.03374831  0.75345526    -0.43200
C361        C  0.90854457  0.36531929  0.58297247     0.00400
C362        C  0.93251860  0.35342643  0.61484910    -0.11500
C363        C  0.90807782  0.31471056  0.64431951     0.02600
C364        C  0.85874693  0.28790784  0.64249022     0.00300
C365        C  0.83566626  0.29675222  0.60695083    -0.11400
C366        C  0.86005831  0.33480376  0.57721108     0.02500
H367        H  0.96974174  0.37683279  0.61968133     0.15500
H368        H  0.79788489  0.27583088  0.60450770     0.15500
C369        C  0.83391567  0.34459252  0.54397005     0.37100
C370        C  0.93388529  0.30676204  0.67946908     0.37100
N371        N  0.81286044  0.35236781  0.51741151    -0.43200
N372        N  0.95463778  0.30050922  0.70769044    -0.43200
C373        C  0.87367497  0.31232699  0.83359086     0.00400
C374        C  0.87281590  0.30452631  0.88121987    -0.11500
C375        C  0.89599789  0.34223302  0.91185417     0.02600
C376        C  0.92197617  0.38818326  0.89436557     0.00300
C377        C  0.92619853  0.39511281  0.84646618    -0.11400
C378        C  0.90129138  0.35794294  0.81615779     0.02500
H379        H  0.85089276  0.26946220  0.89467656     0.15500
H380        H  0.94569880  0.43040938  0.83288565     0.15500
C381        C  0.90177028  0.36810533  0.76766012     0.37100
C382        C  0.88928839  0.33330654  0.96079577     0.37100
N383        N  0.90191477  0.37684209  0.72902034    -0.43200
N384        N  0.88402182  0.32612029  0.00003157    -0.43200
C385        C  0.45938040  0.15438092  0.64479472     0.00400
C386        C  0.49768257  0.17593026  0.61454043    -0.11500
C387        C  0.50869157  0.14942348  0.58535614     0.02600
C388        C  0.48204875  0.10020407  0.58690974     0.00300
C389        C  0.44110938  0.07866983  0.61355896    -0.11400
C390        C  0.42906038  0.10535328  0.64173219     0.02500
H391        H  0.52043995  0.21357075  0.61519033     0.15500
H392        H  0.42035853  0.04087298  0.61488140     0.15500
C393        C  0.38797525  0.08102703  0.67031639     0.37100
C394        C  0.54920735  0.17329120  0.55588498     0.37100
N395        N  0.35502918  0.06151623  0.69323043    -0.43200
N396        N  0.58150344  0.19217779  0.53204760    -0.43200
C397        C  0.45532487  0.31065416  0.85610211     0.00400
C398        C  0.49258562  0.32926870  0.88766818    -0.11500
C399        C  0.50323757  0.36854006  0.91435039     0.02600
C400        C  0.47659071  0.39029766  0.90965181     0.00300
C401        C  0.43666552  0.36922158  0.88161515    -0.11400
C402        C  0.42563177  0.32949035  0.85507797     0.02500
H403        H  0.51532806  0.31493647  0.88938698     0.15500
H404        H  0.41650122  0.38617608  0.87733246     0.15500
C405        C  0.38738783  0.31282799  0.82280595     0.37100
C406        C  0.54437533  0.38870885  0.94324148     0.37100
N407        N  0.35699821  0.29973190  0.79663539    -0.43200
N408        N  0.57741671  0.40528094  0.96624180    -0.43200
C409        C  0.45455654  0.32723380  0.67050805     0.00400
C410        C  0.44656517  0.32013698  0.62292309    -0.11500
C411        C  0.45535717  0.35741337  0.59383098     0.02600
C412        C  0.46974096  0.40181593  0.61295541     0.00300
C413        C  0.47212591  0.40691093  0.66114483    -0.11400
C414        C  0.46698860  0.37092776  0.68970478     0.02500
H415        H  0.43733062  0.28657603  0.60811389     0.15500
H416        H  0.48387117  0.44106259  0.67604371     0.15500
C417        C  0.47947369  0.38154619  0.73770352     0.37100
C418        C  0.45403028  0.35036327  0.54460009     0.37100
N419        N  0.49098040  0.39154443  0.77566222    -0.43200
N420        N  0.45289154  0.34467006  0.50512825    -0.43200
C421        C  0.51811154  0.89987455  0.41753604     0.00400
C422        C  0.55977748  0.92378951  0.39221955    -0.11500
C423        C  0.57440442  0.89940882  0.36399939     0.02600
C424        C  0.54635024  0.85023577  0.36024673     0.00300
C425        C  0.50738672  0.82633885  0.38936131    -0.11400
C426        C  0.49329169  0.85065059  0.41796508     0.02500
H427        H  0.57891737  0.96166804  0.39169551     0.15500
H428        H  0.48615749  0.78854632  0.38771774     0.15500
C429        C  0.45125136  0.82451649  0.44500074     0.37100
C430        C  0.61520371  0.92613506  0.33552928     0.37100
N431        N  0.41751044  0.80378826  0.46660513    -0.43200
N432        N  0.64775299  0.94762146  0.31253294    -0.43200
C433        C  0.55984814  0.70959951  0.14085711     0.00400
C434        C  0.52721435  0.69911675  0.10541135    -0.11500
C435        C  0.51426010  0.66116414  0.07595475     0.02600
C436        C  0.53370879  0.63266853  0.08204119     0.00300
C437        C  0.57024247  0.64626579  0.11382237    -0.11400
C438        C  0.58385627  0.68486947  0.14295563     0.02500
H439        H  0.50927259  0.71850367  0.10290246     0.15500
H440        H  0.58520826  0.62435414  0.11867315     0.15500
C441        C  0.61814740  0.69449971  0.17833762     0.37100
C442        C  0.47792098  0.64950790  0.04235703     0.37100
N443        N  0.64539457  0.70207990  0.20690595    -0.43200
N444        N  0.44882211  0.64007898  0.01537788    -0.43200
C445        C  0.53074249  0.60665084  0.39035219     0.00400
C446        C  0.52904933  0.60049011  0.34229785    -0.09700
C447        C  0.53924169  0.63732405  0.31239186     0.02600
C448        C  0.55486041  0.68225084  0.33032696     0.00300
C449        C  0.56135622  0.68972139  0.37803185    -0.11400
C450        C  0.54825188  0.65212736  0.40825534     0.02500
H451        H  0.51507717  0.56562818  0.32826076     0.15500
H452        H  0.57252405  0.72411663  0.39191216     0.15500
C453        C  0.54858717  0.66042148  0.45716886     0.37100
C454        C  0.52926575  0.62702674  0.26391985     0.37100
N455        N  0.54895005  0.66716178  0.49637353    -0.43200
N456        N  0.52018531  0.61785336  0.22537511    -0.43200
C457        C  0.70198281  0.13983433  0.85996320     0.00400
C458        C  0.67567617  0.09089773  0.85800425    -0.11500
C459        C  0.63600440  0.06571492  0.88595675     0.02600
C460        C  0.62354374  0.08962767  0.91772041     0.00300
C461        C  0.65353631  0.13781091  0.92385664    -0.11400
C462        C  0.69241387  0.16302244  0.89522523     0.02500
H463        H  0.68358794  0.07277843  0.83188133     0.15500
H464        H  0.64429732  0.15632366  0.94841678     0.15500
C465        C  0.72084800  0.21297106  0.90137774     0.37100
C466        C  0.60597568  0.01623623  0.87806439     0.37100
N467        N  0.74374011  0.25296317  0.90645478    -0.43200
N468        N  0.58181818  0.97661054  0.87157903    -0.43200
C469        C  0.47379607  0.07926337  0.89455613     0.00400
C470        C  0.47314925  0.07328366  0.84660514    -0.11500
C471        C  0.46513352  0.10131093  0.81681660     0.02600
C472        C  0.45507966  0.13440045  0.83497810     0.00300
C473        C  0.45129814  0.13745157  0.88287738    -0.11400
C474        C  0.46134518  0.11068598  0.91283828     0.02500
H475        H  0.48337514  0.04967183  0.83239299     0.15500
H476        H  0.44391957  0.16320410  0.89689900     0.15500
C477        C  0.46285640  0.11912843  0.96182212     0.37100
C478        C  0.47131536  0.09793603  0.76800951     0.37100
N479        N  0.46405560  0.12581358  0.00111179    -0.43200
N480        N  0.47726150  0.09490515  0.72917488    -0.43200
C481        C  0.55344739  0.87754579  0.17065485     0.00400
C482        C  0.55708317  0.87404978  0.12281836    -0.11500
C483        C  0.54210259  0.89645608  0.09244456     0.02600
C484        C  0.52472948  0.92410615  0.11020994     0.00300
C485        C  0.52503535  0.93068524  0.15802347    -0.11400
C486        C  0.53830267  0.90698632  0.18828240     0.02500
H487        H  0.56784466  0.85065691  0.10923641     0.15500
H488        H  0.51133865  0.95157737  0.17181398     0.15500
C489        C  0.53250473  0.91073802  0.23712466     0.37100
C490        C  0.54102699  0.88724354  0.04365615     0.37100
N491        N  0.52702977  0.91403348  0.27603045    -0.43200
N492        N  0.54028158  0.88001371  0.00452367    -0.43200
C493        C  0.37121795  0.90444297  0.08185713     0.00400
C494        C  0.35596541  0.92784071  0.11076108    -0.11500
C495        C  0.31748625  0.90276295  0.14035266     0.02600
C496        C  0.29477391  0.85347561  0.14219852     0.00300
C497        C  0.30670466  0.83032860  0.10931176    -0.11400
C498        C  0.34405076  0.85531883  0.07889015     0.02500
H499        H  0.37658300  0.96561879  0.11320815     0.15500
H500        H  0.28852474  0.79245353  0.10917748     0.15500
C501        C  0.35649253  0.82977738  0.04746451     0.37100
C502        C  0.30548914  0.92858193  0.17179158     0.37100
N503        N  0.36645536  0.80941041  0.02215343    -0.43200
N504        N  0.29591199  0.94932088  0.19701092    -0.43200
loop_ 
_geom_bond_atom_site_label_1 
_geom_bond_atom_site_label_2 
_geom_bond_distance 
_geom_bond_site_symmetry_2 
_ccdc_geom_bond_type 
C1            C2   1.397       .  A
C1            C6   1.416       .  A
C1          C493   1.491       .  S
C2            C3   1.397       .  A
C2           H21   1.086       .  S
C3            C4   1.411       .  A
C3          C484   1.484       .  S
C4            C5   1.421       .  A
C4           C11   1.407       .  A
C5            C6   1.425       .  A
C5           C10   1.419   1_564  A
C6            C7   1.404       .  A
C7            C8   1.397   1_564  A
C7           H17   1.083       .  S
C8            C9   1.407       .  A
C8           H18   1.083       .  S
C9           C10   1.421       .  A
C9           C16   1.414       .  A
C10          C13   1.425       .  A
C11          C12   1.392   1_564  A
C11          H19   1.082       .  S
C12          C13   1.402       .  A
C12          H20   1.083       .  S
C13          C14   1.411       .  A
C14          C15   1.392       .  A
C14         C460   1.487       .  S
C15          C16   1.398       .  A
C15          H22   1.086       .  S
C16         C469   1.484       .  S
O23          V31   1.890       .  S
O23          C33   1.263       .  A
O24          V31   1.891       .  S
O24          C34   1.264       .  A
O25          V31   1.889       .  S
O25          C35   1.261       .  A
O26          V31   1.890       .  S
O26          C36   1.262       .  A
O27          V32   1.908       .  S
O27          C36   1.265       .  A
O28          V32   1.909       .  S
O28          C35   1.265       .  A
O29          V32   1.910       .  S
O29          C34   1.267       .  A
O30          V32   1.912       .  S
O30          C33   1.267       .  A
V31          V32   2.082       .  T
C33         C433   1.481       .  S
C34         C424   1.484       .  S
C35         C481   1.467       .  S
C36         C448   1.470       .  S
O37          V45   1.915       .  S
O37          C47   1.268       .  A
O38          V45   1.913       .  S
O38          C48   1.268       .  A
O39          V45   1.902       .  S
O39          C49   1.263       .  A
O40          V45   1.903       .  S
O40          C50   1.263       .  A
O41          V46   1.897       .  S
O41          C50   1.264       .  A
O42          V46   1.896       .  S
O42          C49   1.264       .  A
O43          V46   1.898       .  S
O43          C48   1.265       .  A
O44          V46   1.899       .  S
O44          C47   1.265       .  A
V45          V46   2.082       .  T
C47         C385   1.493       .  S
C48         C397   1.491       .  S
C49         C409   1.469       .  S
C50         C472   1.469       .  S
O51          V59   1.892       .  S
O51          C61   1.263       .  A
O52          V59   1.891       .  S
O52          C62   1.263       .  A
O53          V59   1.887       .  S
O53          C63   1.262       .  A
O54          V59   1.887       .  S
O54          C64   1.261       .  A
O55          V60   1.907       .  S
O55          C64   1.265       .  A
O56          V60   1.911       .  S
O56          C63   1.265       .  A
O57          V60   1.921       .  S
O57          C62   1.269       .  A
O58          V60   1.916       .  S
O58          C61   1.268       .  A
V59          V60   2.084       .  T
C61         C457   1.482       .  S
C62         C364   1.487       .  S
C63         C352   1.468       .  S
C64         C373   1.467       .  S
O65          V73   1.919       .  S
O65          C75   1.268       .  A
O66          V73   1.918       .  S
O66          C76   1.268       .  A
O67          V73   1.908       .  S
O67          C77   1.265       .  A
O68          V73   1.914       .  S
O68          C78   1.266       .  A
O69          V74   1.894       .  S
O69          C78   1.263       .  A
O70          V74   1.890       .  S
O70          C77   1.262       .  A
O71          V74   1.896       .  S
O71          C76   1.265       .  A
O72          V74   1.897       .  S
O72          C75   1.265       .  A
V73          V74   2.082       .  T
C75         C337   1.489       .  S
C76         C496   1.489       .  S
C77         C328   1.468       .  S
C78         C313   1.477       .  S
C79          C80   1.394       .  A
C79          C84   1.417       .  A
C79         C304   1.493       .  S
C80          C81   1.397       .  A
C80          H99   1.086       .  S
C81          C82   1.413       .  A
C81         C376   1.484       .  S
C82          C83   1.421       .  A
C82          C89   1.407       .  A
C83          C84   1.426       .  A
C83          C88   1.420   1_656  A
C84          C85   1.403       .  A
C85          C86   1.396   1_656  A
C85          H95   1.083       .  S
C86          C87   1.407       .  A
C86          H96   1.083       .  S
C87          C88   1.420       .  A
C87          C94   1.413       .  A
C88          C91   1.426       .  A
C89          C90   1.394   1_656  A
C89          H97   1.082       .  S
C90          C91   1.403       .  A
C90          H98   1.083       .  S
C91          C92   1.415       .  A
C92          C93   1.395       .  A
C92         C292   1.491       .  S
C93          C94   1.397       .  A
C93         H100   1.085       .  S
C94         C325   1.483       .  S
C101        C102   1.395       .  A
C101        C106   1.415       .  A
C101        C277   1.484       .  S
C102        C103   1.396       .  A
C102        H121   1.086       .  S
C103        C104   1.417       .  A
C103        C361   1.491       .  S
C104        C105   1.426       .  A
C104        C111   1.404       .  A
C105        C106   1.422       .  A
C105        C110   1.423   1_655  A
C106        C107   1.407       .  A
C107        C108   1.399   1_655  A
C107        H117   1.083       .  S
C108        C109   1.405       .  A
C108        H118   1.083       .  S
C109        C110   1.427       .  A
C109        C116   1.419       .  A
C110        C113   1.422       .  A
C111        C112   1.396   1_655  A
C111        H119   1.083       .  S
C112        C113   1.407       .  A
C112        H120   1.082       .  S
C113        C114   1.415       .  A
C114        C115   1.396       .  A
C114        C268   1.486       .  S
C115        C116   1.397       .  A
C115        H122   1.086       .  S
C116        C340   1.493       .  S
O123        V131   1.892       .  S
O123        C133   1.262       .  A
O124        V131   1.895       .  S
O124        C134   1.262       .  A
O125        V131   1.893       .  S
O125        C135   1.264       .  A
O126        V131   1.895       .  S
O126        C136   1.264       .  A
O127        V132   1.916       .  S
O127        C136   1.268       .  A
O128        V132   1.919       .  S
O128        C135   1.268       .  A
O129        V132   1.915       .  S
O129        C134   1.267       .  A
O130        V132   1.914       .  S
O130        C133   1.266       .  A
V131        V132   2.084       .  T
C133        C244   1.473       .  S
C134        C265   1.476       .  S
C135        C256   1.489       .  S
C136        C289   1.488       .  S
O137        V145   1.908       .  S
O137        C147   1.265       .  A
O138        V145   1.904       .  S
O138        C148   1.263       .  A
O139        V145   1.919       .  S
O139        C149   1.269       .  A
O140        V145   1.920       .  S
O140        C150   1.269       .  A
O141        V146   1.893       .  S
O141        C150   1.262       .  A
O142        V146   1.896       .  S
O142        C149   1.264       .  A
O143        V146   1.894       .  S
O143        C148   1.263       .  A
O144        V146   1.899       .  S
O144        C147   1.264       .  A
V145        V146   2.087       .  T
C147        C280   1.477       .  S
C148        C217   1.468       .  S
C149        C301   1.492       .  S
C150        C232   1.485       .  S
C151        C152   1.398       .  A
C151        C156   1.415       .  A
C151        C241   1.487       .  S
C152        C153   1.396       .  A
C152        H171   1.086       .  S
C153        C154   1.411       .  A
C153        C436   1.486       .  S
C154        C155   1.424       .  A
C154        C161   1.404       .  A
C155        C156   1.421       .  A
C155        C160   1.419   1_554  A
C156        C157   1.407       .  A
C157        C158   1.396   1_554  A
C157        H167   1.082       .  S
C158        C159   1.404       .  A
C158        H168   1.083       .  S
C159        C160   1.424       .  A
C159        C166   1.416       .  A
C160        C163   1.421       .  A
C161        C162   1.393   1_554  A
C161        H169   1.083       .  S
C162        C163   1.405       .  A
C162        H170   1.083       .  S
C163        C164   1.410       .  A
C164        C165   1.395       .  A
C164        C220   1.480       .  S
C165        C166   1.396       .  A
C165        H172   1.086       .  S
C166        C400   1.489       .  S
C173        C174   1.399       .  A
C173        C178   1.415       .  A
C173        C445   1.490       .  S
C174        C175   1.395       .  A
C174        H193   1.086       .  S
C175        C176   1.414       .  A
C175        C253   1.492       .  S
C176        C177   1.426       .  A
C176        C183   1.404       .  A
C177        C178   1.423       .  A
C177        C182   1.421       .  A
C178        C179   1.407       .  A
C179        C180   1.395       .  A
C179        H189   1.083       .  S
C180        C181   1.402       .  A
C180        H190   1.082       .  S
C181        C182   1.426       .  A
C181        C188   1.414       .  A
C182        C185   1.422       .  A
C183        C184   1.395       .  A
C183        H191   1.082       .  S
C184        C185   1.406       .  A
C184        H192   1.083       .  S
C185        C186   1.415       .  A
C186        C187   1.397       .  A
C186        C412   1.487       .  S
C187        C188   1.390       .  A
C187        H194   1.086       .  S
C188        C229   1.488       .  S
C195        C196   1.394       .  A
C195        C200   1.410       .  A
C195        C421   1.487       .  S
C196        C197   1.398       .  A
C196        H215   1.086       .  S
C197        C198   1.418       .  A
C197        C316   1.491       .  S
C198        C199   1.424       .  A
C198        C205   1.406       .  A
C199        C200   1.424       .  A
C199        C204   1.420   1_565  A
C200        C201   1.404       .  A
C201        C202   1.390   1_565  A
C201        H211   1.082       .  S
C202        C203   1.404       .  A
C202        H212   1.083       .  S
C203        C204   1.421       .  A
C203        C210   1.408       .  A
C204        C207   1.424       .  A
C205        C206   1.399   1_565  A
C205        H213   1.083       .  S
C206        C207   1.406       .  A
C206        H214   1.082       .  S
C207        C208   1.419       .  A
C208        C209   1.400       .  A
C208        C388   1.493       .  S
C209        C210   1.395       .  A
C209        H216   1.086       .  S
C210        C349   1.480       .  S
C217        C218   1.402       .  A
C217        C222   1.408       .  A
C218        C219   1.400       .  A
C218        H223   1.085       .  S
C219        C220   1.410       .  A
C219        C226   1.444       .  S
C220        C221   1.402       .  A
C221        C222   1.399       .  A
C221        H224   1.085       .  S
C222        C225   1.443       .  S
C225        N227   1.157       .  T
C226        N228   1.157       .  T
C229        C230   1.401       .  A
C229        C234   1.413       .  A
C230        C231   1.400       .  A
C230        H235   1.086       .  S
C231        C232   1.414       .  A
C231        C238   1.443       .  S
C232        C233   1.406       .  A
C233        C234   1.408       .  A
C233        H236   1.085       .  S
C234        C237   1.443       .  S
C237        N239   1.157       .  T
C238        N240   1.157       .  T
C241        C242   1.402       .  A
C241        C246   1.412       .  A
C242        C243   1.398       .  A
C242        H247   1.085       .  S
C243        C244   1.409       .  A
C243        C250   1.442       .  S
C244        C245   1.404       .  A
C245        C246   1.405       .  A
C245        H248   1.085       .  S
C246        C249   1.443       .  S
C249        N251   1.157   1_554  T
C250        N252   1.156       .  T
C253        C254   1.406       .  A
C253        C258   1.410       .  A
C254        C255   1.410       .  A
C254        H259   1.084       .  S
C255        C256   1.416       .  A
C255        C262   1.444       .  S
C256        C257   1.405       .  A
C257        C258   1.399       .  A
C257        H260   1.085       .  S
C258        C261   1.444       .  S
C261        N263   1.157       .  T
C262        N264   1.157       .  T
C265        C266   1.404       .  A
C265        C270   1.410       .  A
C266        C267   1.404       .  A
C266        H271   1.085       .  S
C267        C268   1.411       .  A
C267        C274   1.443       .  S
C268        C269   1.403       .  A
C269        C270   1.401       .  A
C269        H272   1.085       .  S
C270        C273   1.441       .  S
C273        N275   1.156       .  T
C274        N276   1.157       .  T
C277        C278   1.404       .  A
C277        C282   1.410       .  A
C278        C279   1.405       .  A
C278        H283   1.085       .  S
C279        C280   1.411       .  A
C279        C286   1.442       .  S
C280        C281   1.400       .  A
C281        C282   1.399       .  A
C281        H284   1.083       .  S
C282        C285   1.444       .  S
C285        N287   1.157       .  T
C286        N288   1.157       .  T
C289        C290   1.405       .  A
C289        C294   1.414       .  A
C290        C291   1.406       .  A
C290        H295   1.085       .  S
C291        C292   1.412       .  A
C291        C298   1.443       .  S
C292        C293   1.404       .  A
C293        C294   1.401       .  A
C293        H296   1.085       .  S
C294        C297   1.445       .  S
C297        N299   1.157       .  T
C298        N300   1.157   1_455  T
C301        C302   1.406       .  A
C301        C306   1.416       .  A
C302        C303   1.408       .  A
C302        H307   1.084       .  S
C303        C304   1.412       .  A
C303        C310   1.443       .  S
C304        C305   1.404       .  A
C305        C306   1.401       .  A
C305        H308   1.085       .  S
C306        C309   1.445       .  S
C309        N311   1.157       .  T
C310        N312   1.157   1_655  T
C313        C314   1.404       .  A
C313        C318   1.409       .  A
C314        C315   1.407       .  A
C314        H319   1.085       .  S
C315        C316   1.413       .  A
C315        C322   1.443       .  S
C316        C317   1.405       .  A
C317        C318   1.398       .  A
C317        H320   1.085       .  S
C318        C321   1.444       .  S
C321        N323   1.157       .  T
C322        N324   1.157       .  T
C325        C326   1.404       .  A
C325        C330   1.412       .  A
C326        C327   1.402       .  A
C326        H331   1.083       .  S
C327        C328   1.410       .  A
C327        C334   1.444       .  S
C328        C329   1.400       .  A
C329        C330   1.398       .  A
C329        H332   1.084       .  S
C330        C333   1.445       .  S
C333        N335   1.157       .  T
C334        N336   1.157       .  T
C337        C338   1.407       .  A
C337        C342   1.413       .  A
C338        C339   1.409       .  A
C338        H343   1.085       .  S
C339        C340   1.412       .  A
C339        C346   1.443       .  S
C340        C341   1.404       .  A
C341        C342   1.403       .  A
C341        H344   1.085       .  S
C342        C345   1.444       .  S
C345        N347   1.157       .  T
C346        N348   1.157   1_455  T
C349        C350   1.402       .  A
C349        C354   1.408       .  A
C350        C351   1.402       .  A
C350        H355   1.085       .  S
C351        C352   1.409       .  A
C351        C358   1.441       .  S
C352        C353   1.401       .  A
C353        C354   1.397       .  A
C353        H356   1.085       .  S
C354        C357   1.443       .  S
C357        N359   1.157       .  T
C358        N360   1.157       .  T
C361        C362   1.405       .  A
C361        C366   1.411       .  A
C362        C363   1.409       .  A
C362        H367   1.085       .  S
C363        C364   1.414       .  A
C363        C370   1.443       .  S
C364        C365   1.405       .  A
C365        C366   1.400       .  A
C365        H368   1.085       .  S
C366        C369   1.444       .  S
C369        N371   1.157       .  T
C370        N372   1.157       .  T
C373        C374   1.403       .  A
C373        C378   1.408       .  A
C374        C375   1.404       .  A
C374        H379   1.086       .  S
C375        C376   1.413       .  A
C375        C382   1.444       .  S
C376        C377   1.403       .  A
C377        C378   1.394       .  A
C377        H380   1.086       .  S
C378        C381   1.445       .  S
C381        N383   1.157       .  T
C382        N384   1.157   1_556  T
C385        C386   1.406       .  A
C385        C390   1.417       .  A
C386        C387   1.401       .  A
C386        H391   1.084       .  S
C387        C388   1.411       .  A
C387        C394   1.445       .  S
C388        C389   1.404       .  A
C389        C390   1.408       .  A
C389        H392   1.084       .  S
C390        C393   1.443       .  S
C393        N395   1.157       .  T
C394        N396   1.157       .  T
C397        C398   1.405       .  A
C397        C402   1.418       .  A
C398        C399   1.400       .  A
C398        H403   1.084       .  S
C399        C400   1.412       .  A
C399        C406   1.445       .  S
C400        C401   1.403       .  A
C401        C402   1.407       .  A
C401        H404   1.084       .  S
C402        C405   1.443       .  S
C405        N407   1.157       .  T
C406        N408   1.157       .  T
C409        C410   1.402       .  A
C409        C414   1.408       .  A
C410        C411   1.404       .  A
C410        H415   1.085       .  S
C411        C412   1.414       .  A
C411        C418   1.443       .  S
C412        C413   1.405       .  A
C413        C414   1.395       .  A
C413        H416   1.086       .  S
C414        C417   1.443       .  S
C417        N419   1.157       .  T
C418        N420   1.157       .  T
C421        C422   1.403       .  A
C421        C426   1.410       .  A
C422        C423   1.404       .  A
C422        H427   1.085       .  S
C423        C424   1.415       .  A
C423        C430   1.444       .  S
C424        C425   1.405       .  A
C425        C426   1.398       .  A
C425        H428   1.085       .  S
C426        C429   1.445       .  S
C429        N431   1.157       .  T
C430        N432   1.157       .  T
C433        C434   1.404       .  A
C433        C438   1.414       .  A
C434        C435   1.398       .  A
C434        H439   1.084       .  S
C435        C436   1.408       .  A
C435        C442   1.444       .  S
C436        C437   1.404       .  A
C437        C438   1.406       .  A
C437        H440   1.084       .  S
C438        C441   1.444       .  S
C441        N443   1.157       .  T
C442        N444   1.157       .  T
C445        C446   1.405       .  A
C445        C450   1.415       .  A
C446        C447   1.396       .  A
C446        H451   1.085       .  S
C447        C448   1.409       .  A
C447        C454   1.444       .  S
C448        C449   1.402       .  A
C449        C450   1.404       .  A
C449        H452   1.085       .  S
C450        C453   1.443       .  S
C453        N455   1.157       .  T
C454        N456   1.157       .  T
C457        C458   1.403       .  A
C457        C462   1.412       .  A
C458        C459   1.405       .  A
C458        H463   1.082       .  S
C459        C460   1.412       .  A
C459        C466   1.444       .  S
C460        C461   1.402       .  A
C461        C462   1.400       .  A
C461        H464   1.085       .  S
C462        C465   1.444       .  S
C465        N467   1.157       .  T
C466        N468   1.157   1_545  T
C469        C470   1.403       .  A
C469        C474   1.412       .  A
C470        C471   1.395       .  A
C470        H475   1.086       .  S
C471        C472   1.408       .  A
C471        C478   1.442       .  S
C472        C473   1.403       .  A
C473        C474   1.403       .  A
C473        H476   1.085       .  S
C474        C477   1.443       .  S
C477        N479   1.157   1_556  T
C478        N480   1.156       .  T
C481        C482   1.402       .  A
C481        C486   1.409       .  A
C482        C483   1.402       .  A
C482        H487   1.085       .  S
C483        C484   1.412       .  A
C483        C490   1.444       .  S
C484        C485   1.402       .  A
C485        C486   1.396       .  A
C485        H488   1.085       .  S
C486        C489   1.443       .  S
C489        N491   1.157       .  T
C490        N492   1.157       .  T
C493        C494   1.405       .  A
C493        C498   1.411       .  A
C494        C495   1.408       .  A
C494        H499   1.085       .  S
C495        C496   1.415       .  A
C495        C502   1.443       .  S
C496        C497   1.405       .  A
C497        C498   1.400       .  A
C497        H500   1.085       .  S
C498        C501   1.444       .  S
C501        N503   1.157       .  T
C502        N504   1.157       .  T
