geometry optimzed in LAMMPS
_audit_creation_date              2020-12-01 
_audit_creation_method            'lammps2cif' 
_symmetry_space_group_name_H-M    'P1' 
_symmetry_Int_Tables_number       1 
_symmetry_cell_setting            triclinic 
loop_ 
_symmetry_equiv_pos_as_xyz 
  x,y,z 
_cell_length_a                    33.14690002 
_cell_length_b                    33.14434180923355 
_cell_length_c                    29.749680384775463 
_cell_angle_alpha                 90.12304113119065 
_cell_angle_beta                  90.11823070401996 
_cell_angle_gamma                 90.0385683220669 
loop_ 
_atom_site_label 
_atom_site_type_symbol 
_atom_site_fract_x 
_atom_site_fract_y 
_atom_site_fract_z 
_atom_site_charge 
O1          O  0.46139156  0.78643871  0.04849190    -0.71300
O2          O  0.54136516  0.78655693  0.45725163    -0.71500
O3          O  0.54298376  0.78703885  0.04722444    -0.71300
O4          O  0.45973978  0.78628402  0.45877426    -0.71300
O5          O  0.46051147  0.85184652  0.45781189    -0.71300
O6          O  0.54165099  0.85259659  0.04764323    -0.71300
O7          O  0.54115264  0.85211809  0.45721354    -0.71300
O8          O  0.46106660  0.85201774  0.04812868    -0.71500
V9          V  0.50142856  0.78770639  0.00297891     1.35200
V10         V  0.50112831  0.85097111  0.50262385     1.35200
C11         C  0.44724702  0.81925342  0.06335755     0.78000
C12         C  0.55503091  0.81935464  0.44188473     0.78000
C13         C  0.55638483  0.82011426  0.06248050     0.77900
C14         C  0.44587210  0.81904435  0.44346523     0.77900
C15         C  0.64674885  0.78974006  0.37336463     0.03600
C16         C  0.61478641  0.78803888  0.40436617    -0.12500
C17         C  0.58677360  0.81967661  0.40729309     0.01100
C18         C  0.58990818  0.85244908  0.37786396    -0.11000
C19         C  0.62101337  0.85415408  0.34615996     0.03600
C20         C  0.64968181  0.82313141  0.34445994    -0.10500
H21         H  0.61252411  0.76297351  0.42750105     0.09200
H22         H  0.56795321  0.87664331  0.37946151     0.06800
H23         H  0.67322743  0.82438822  0.31933553     0.06600
C24         C  0.34954623  0.79257709  0.38097420     0.03600
C25         C  0.38245299  0.79018365  0.41084563    -0.12500
C26         C  0.41306726  0.81948476  0.41003854     0.01100
C27         C  0.41136718  0.85061977  0.37833395    -0.11000
C28         C  0.37922412  0.85303880  0.34787369     0.03600
C29         C  0.34819972  0.82431334  0.34967330    -0.10500
H30         H  0.38357923  0.76660989  0.43594854     0.09200
H31         H  0.43510778  0.87312607  0.37746183     0.06800
H32         H  0.32370111  0.82609620  0.32564244     0.06600
C33         C  0.65153838  0.79401063  0.12678938     0.03600
C34         C  0.65295368  0.82615092  0.15777352    -0.12500
C35         C  0.62210195  0.85516291  0.15888126     0.01100
C36         C  0.59030121  0.85262248  0.12789226    -0.11000
C37         C  0.58880380  0.82117856  0.09636087     0.03600
C38         C  0.61913258  0.79173982  0.09630811    -0.10500
H39         H  0.67721521  0.82791981  0.18212583     0.09200
H40         H  0.56666567  0.87521665  0.12826415     0.06800
H41         H  0.61809152  0.76798420  0.07130872     0.06600
C42         C  0.35216493  0.79063870  0.12590344     0.03600
C43         C  0.38498296  0.78931455  0.09603831    -0.12500
C44         C  0.41464563  0.81945948  0.09680518     0.01100
C45         C  0.41210123  0.85071317  0.12835958    -0.11000
C46         C  0.37998403  0.85228202  0.15886118     0.03600
C47         C  0.34985131  0.82251557  0.15718059    -0.10500
H48         H  0.38688623  0.76571442  0.07093469     0.09200
H49         H  0.43519170  0.87389211  0.12915250     0.06800
H50         H  0.32551931  0.82364030  0.18133124     0.06600
O51         O  0.58904715  0.98201440  0.20842319    -0.71300
O52         O  0.58921935  0.90149428  0.29830610    -0.71500
O53         O  0.58918051  0.98210759  0.29882639    -0.71300
O54         O  0.58946517  0.90145912  0.20807799    -0.71300
O55         O  0.65502159  0.90130426  0.20856864    -0.71300
O56         O  0.65472502  0.98261694  0.29893492    -0.71300
O57         O  0.65479449  0.90094964  0.29831068    -0.71300
O58         O  0.65460211  0.98274188  0.20892902    -0.71500
V59         V  0.59054516  0.94180238  0.25344178     1.35200
V60         V  0.65354585  0.94195802  0.25370362     1.35200
C61         C  0.62169993  0.99608537  0.19330136     0.78000
C62         C  0.62186310  0.88707301  0.31314476     0.78000
C63         C  0.62186758  0.99620317  0.31427620     0.77900
C64         C  0.62226962  0.88739435  0.19312761     0.77900
O65         O  0.41077730  0.98004325  0.29821907    -0.71300
O66         O  0.41148927  0.89886780  0.20845699    -0.71500
O67         O  0.41083865  0.97945192  0.20795207    -0.71300
O68         O  0.41132560  0.89941969  0.29871015    -0.71300
O69         O  0.34577327  0.89838881  0.29809312    -0.71300
O70         O  0.34527474  0.97948476  0.20802045    -0.71300
O71         O  0.34593578  0.89785867  0.20824144    -0.71300
O72         O  0.34521198  0.98003897  0.29783496    -0.71500
V73         V  0.40978649  0.93943096  0.25333208     1.35200
V74         V  0.34678532  0.93893820  0.25306316     1.35200
C75         C  0.37799237  0.99416162  0.31303983     0.78000
C76         C  0.37896231  0.88435568  0.19320564     0.78000
C77         C  0.37804288  0.99338337  0.19282337     0.77900
C78         C  0.37868505  0.88501255  0.31359370     0.77900
O79         O  0.53921416  0.02903375  0.45837164    -0.71300
O80         O  0.45902708  0.02822627  0.04834700    -0.71500
O81         O  0.45858313  0.02870756  0.45817853    -0.71300
O82         O  0.53970650  0.02858768  0.04816312    -0.71300
O83         O  0.54023503  0.09417204  0.04828682    -0.71300
O84         O  0.45796069  0.09426692  0.45859231    -0.71300
O85         O  0.45838830  0.09379555  0.04879694    -0.71300
O86         O  0.53970033  0.09461528  0.45905994    -0.71500
V87         V  0.49895140  0.03010942  0.50335593     1.35200
V88         V  0.49901196  0.09294992  0.00371514     1.35200
C89         C  0.55365082  0.06178297  0.44392169     0.78000
C90         C  0.44467292  0.06077805  0.06359432     0.78000
C91         C  0.44427927  0.06137388  0.44321363     0.77900
C92         C  0.55428825  0.06125874  0.06294243     0.77900
C93         C  0.35123504  0.09019092  0.37592228     0.03600
C94         C  0.34905994  0.05726383  0.34595900    -0.12500
C95         C  0.37843325  0.02679536  0.34674882     0.01100
C96         C  0.40963182  0.02860597  0.37849431    -0.11000
C97         C  0.41209700  0.06079438  0.40894476     0.03600
C98         C  0.38319825  0.09168628  0.40719574    -0.10500
H99         H  0.32560630  0.05585452  0.32068511     0.09200
H100        H  0.43220224  0.00495314  0.37933755     0.06800
H101        H  0.38514843  0.11615144  0.43122836     0.06600
C102        C  0.65134634  0.08725668  0.38485903     0.03600
C103        C  0.61781942  0.08980939  0.41360717    -0.12500
C104        C  0.58673630  0.06122145  0.41108567     0.01100
C105        C  0.58852262  0.03055041  0.37870662    -0.11000
C106        C  0.62138453  0.02782124  0.34928913     0.03600
C107        C  0.65308373  0.05582099  0.35302047    -0.10500
H108        H  0.61648609  0.11314352  0.43910995     0.09200
H109        H  0.56431700  0.00860611  0.37658555     0.06800
H110        H  0.67818896  0.05398499  0.32989105     0.06600
C111        C  0.65232216  0.08575736  0.12264062     0.03600
C112        C  0.65314492  0.05485884  0.15488582    -0.12500
C113        C  0.62119724  0.02743017  0.15837223     0.01100
C114        C  0.58856385  0.03023002  0.12855527    -0.11000
C115        C  0.58748142  0.06051092  0.09579760     0.03600
C116        C  0.61916782  0.08854502  0.09324399    -0.10500
H117        H  0.67853396  0.05218589  0.17764172     0.09200
H118        H  0.56404812  0.00864449  0.13062023     0.08400
H119        H  0.61803095  0.11214172  0.06815659     0.06600
C120        C  0.34925923  0.08699900  0.12727365     0.03600
C121        C  0.34756889  0.05462066  0.15772234    -0.12500
C122        C  0.37831429  0.02555400  0.15877726     0.01100
C123        C  0.41028232  0.02814887  0.12820218    -0.11000
C124        C  0.41215905  0.05985132  0.09722752     0.03600
C125        C  0.38195197  0.08948227  0.09729451    -0.10500
H126        H  0.32318858  0.05272342  0.18179218     0.09200
H127        H  0.43379492  0.00542240  0.12851550     0.06800
H128        H  0.38325601  0.11348200  0.07272290     0.06600
O129        O  0.04066558  0.52829410  0.20329748    -0.71300
O130        O  0.95974867  0.52926157  0.29274855    -0.71500
O131        O  0.95996043  0.52865382  0.20253401    -0.71300
O132        O  0.04031563  0.52917366  0.29345896    -0.71300
O133        O  0.04088407  0.59473101  0.29289910    -0.71300
O134        O  0.95988260  0.59422083  0.20223683    -0.71300
O135        O  0.95927866  0.59483153  0.29199367    -0.71300
O136        O  0.04157070  0.59386445  0.20318246    -0.71500
V137        V  0.00017906  0.53016272  0.24797892     1.35200
V138        V  0.00040433  0.59317205  0.24755083     1.35200
C139        C  0.05530405  0.56080607  0.18844042     0.78000
C140        C  0.94547767  0.56206452  0.30736027     0.78000
C141        C  0.94585040  0.56132125  0.18730859     0.77900
C142        C  0.05445386  0.56198173  0.30851242     0.77900
O143        O  0.95846838  0.28640640  0.29173277    -0.71300
O144        O  0.03941380  0.28589731  0.20146792    -0.71500
O145        O  0.04010406  0.28687537  0.29106476    -0.71300
O146        O  0.95779743  0.28573787  0.20180007    -0.71300
O147        O  0.95892609  0.35127211  0.20027316    -0.71300
O148        O  0.03854974  0.35242780  0.29169798    -0.71300
O149        O  0.03952464  0.35147012  0.20156470    -0.71300
O150        O  0.95785426  0.35195717  0.29059218    -0.71500
V151        V  0.99889635  0.28746955  0.24652045     1.35200
V152        V  0.99868206  0.35047083  0.24603616     1.35200
C153        C  0.94424197  0.31928624  0.30635492     0.78000
C154        C  0.05362526  0.31865266  0.18663944     0.78000
C155        C  0.05347565  0.31994259  0.30632786     0.77900
C156        C  0.94450893  0.31845812  0.18572075     0.77900
O157        O  0.15311721  0.39922506  0.45273688    -0.71300
O158        O  0.15431663  0.48035014  0.04302538    -0.71500
O159        O  0.15400006  0.39874563  0.04256250    -0.71300
O160        O  0.15291800  0.48077901  0.45329689    -0.71300
O161        O  0.08734144  0.48055051  0.45410859    -0.71300
O162        O  0.08843057  0.39904716  0.04288952    -0.71300
O163        O  0.08876412  0.47956354  0.04438957    -0.71300
O164        O  0.08755716  0.39992945  0.45259861    -0.71500
V165        V  0.15227392  0.43980684  0.49788186     1.35200
V166        V  0.08940413  0.43981003  0.99851838     1.35200
C167        C  0.12018224  0.38575954  0.43731871     0.78000
C168        C  0.12167208  0.49387077  0.05891821     0.78000
C169        C  0.12119173  0.38488226  0.05774454     0.77900
C170        C  0.11987016  0.49483137  0.43889355     0.77900
C171        C  0.14663232  0.59094256  0.37744200     0.03600
C172        C  0.11506157  0.59271828  0.34575781    -0.12500
C173        C  0.08614167  0.56171080  0.34335175     0.01100
C174        C  0.08816598  0.52951706  0.37374376    -0.11000
C175        C  0.11904912  0.52769277  0.40581436     0.03600
C176        C  0.14834236  0.55811317  0.40722955    -0.10500
H177        H  0.11374549  0.61725931  0.32184576     0.09200
H178        H  0.06567300  0.50577186  0.37243457     0.06800
H179        H  0.17170845  0.55671183  0.43266140     0.06600
C180        C  0.14905321  0.29306814  0.36972066     0.03600
C181        C  0.15038277  0.32477905  0.40124971    -0.12500
C182        C  0.11970060  0.35394216  0.40267888     0.01100
C183        C  0.08790281  0.35198308  0.37167573    -0.11000
C184        C  0.08622016  0.32086427  0.33981763     0.03600
C185        C  0.11657382  0.29139570  0.33918199    -0.10500
H186        H  0.17436138  0.32621797  0.42590868     0.09200
H187        H  0.06435921  0.37466903  0.37240611     0.06800
H188        H  0.11525695  0.26789748  0.31392081     0.06600
C189        C  0.14810483  0.29015782  0.12227947     0.03600
C190        C  0.11555517  0.28835922  0.15252811    -0.12500
C191        C  0.08623841  0.31891802  0.15313583     0.01100
C192        C  0.08885979  0.35076299  0.12248114    -0.11000
C193        C  0.12061045  0.35263010  0.09161737     0.03600
C194        C  0.15047324  0.32270663  0.09207293    -0.10500
H195        H  0.11370535  0.26415677  0.17681046     0.09200
H196        H  0.06598615  0.37413794  0.12252735     0.06800
H197        H  0.17464600  0.32411917  0.06770861     0.06600
C198        C  0.14936895  0.58874748  0.12338580     0.03600
C199        C  0.15138954  0.55617698  0.09301437    -0.12500
C200        C  0.12158705  0.52605643  0.09305198     0.01100
C201        C  0.09024606  0.52787592  0.12442242    -0.11000
C202        C  0.08793149  0.55986279  0.15505872     0.03600
C203        C  0.11727868  0.59030973  0.15424594    -0.10500
H204        H  0.17502962  0.55492352  0.06802628     0.09200
H205        H  0.06733257  0.50451331  0.12468613     0.06800
H206        H  0.11551090  0.61454086  0.17859500     0.06600
O207        O  0.91075680  0.48073492  0.04239783    -0.71300
O208        O  0.91079512  0.40100995  0.45145070    -0.71500
O209        O  0.91067007  0.48161414  0.45182711    -0.71300
O210        O  0.91086497  0.40012467  0.04122281    -0.71300
O211        O  0.84529411  0.39967743  0.04119076    -0.71300
O212        O  0.84510826  0.48187888  0.45156691    -0.71300
O213        O  0.84522719  0.40018437  0.45162201    -0.71300
O214        O  0.84519908  0.48145796  0.04178721    -0.71500
V215        V  0.90947958  0.44089692  0.99672564     1.35200
V216        V  0.84632485  0.44118557  0.49650281     1.35200
C217        C  0.87809520  0.49499186  0.05735323     0.78000
C218        C  0.87816834  0.38650373  0.43652692     0.78000
C219        C  0.87798596  0.49570057  0.43656796     0.77900
C220        C  0.87820908  0.38564865  0.05596584     0.77900
C221        C  0.85252416  0.28978512  0.37491741     0.03600
C222        C  0.85007130  0.32287033  0.40443123    -0.12500
C223        C  0.87892176  0.35376217  0.40304470     0.01100
C224        C  0.90981742  0.35218069  0.37102181    -0.11000
C225        C  0.91238288  0.31974777  0.34084047     0.03600
C226        C  0.88406232  0.28829683  0.34337964    -0.10500
H227        H  0.82677579  0.32389510  0.42987047     0.09200
H228        H  0.93203936  0.37616876  0.36975507     0.06800
H229        H  0.88590969  0.26338965  0.31984943     0.06600
C230        C  0.84994051  0.58906558  0.37004479     0.03600
C231        C  0.84784739  0.55689956  0.40074312    -0.12500
C232        C  0.87857048  0.52780989  0.40242584     0.01100
C233        C  0.91080136  0.53017075  0.37217014    -0.11000
C234        C  0.91298304  0.56164509  0.34094373     0.03600
C235        C  0.88296700  0.59138586  0.34054417    -0.10500
H236        H  0.82324178  0.55520675  0.42453557     0.09200
H237        H  0.93423426  0.50736784  0.37284205     0.06800
H238        H  0.88459497  0.61533533  0.31591587     0.06600
C239        C  0.85125075  0.58947494  0.12275236     0.03600
C240        C  0.88378976  0.59121945  0.15314441    -0.12500
C241        C  0.91325503  0.56081621  0.15355106     0.01100
C242        C  0.91070583  0.52903782  0.12256035    -0.11000
C243        C  0.87883001  0.52713052  0.09161215     0.03600
C244        C  0.84890847  0.55701658  0.09226590    -0.10500
H245        H  0.88556585  0.61532561  0.17767447     0.09200
H246        H  0.93368120  0.50576987  0.12244167     0.06800
H247        H  0.82471182  0.55566810  0.06780828     0.06600
C248        C  0.85202682  0.28938005  0.11789387     0.03600
C249        C  0.88387182  0.28781932  0.14914643    -0.12500
C250        C  0.91261531  0.31879587  0.15117520     0.01100
C251        C  0.91014463  0.35096711  0.12082575    -0.11000
C252        C  0.87894046  0.35272322  0.08907077     0.03600
C253        C  0.84965035  0.32214474  0.08804126    -0.10500
H254        H  0.88629189  0.26271206  0.17220940     0.09200
H255        H  0.93260541  0.37474683  0.12188595     0.06800
H256        H  0.82538355  0.32372787  0.06367391     0.06600
C257        C  0.28669250  0.17478676  0.11587879     0.20900
C258        C  0.27724592  0.21462040  0.10413199    -0.39000
C259        C  0.23766364  0.22684914  0.11336284     0.19800
C260        C  0.20965526  0.20145170  0.13291925     0.22500
C261        C  0.21909768  0.16154513  0.14465659    -0.39500
C262        C  0.25873780  0.14928698  0.13537962     0.21300
N263        N  0.32223192  0.15602801  0.11055242    -0.32800
C264        C  0.31708132  0.11812596  0.12676239    -0.10400
C265        C  0.27770886  0.11290233  0.14261101    -0.29200
N266        N  0.17425581  0.22051376  0.13852263    -0.45800
C267        C  0.17969394  0.25842941  0.12236048    -0.05000
C268        C  0.21899618  0.26333439  0.10631342    -0.22400
H269        H  0.29911347  0.23461966  0.08891880     0.19400
H270        H  0.19726552  0.14158875  0.16000112     0.18200
H271        H  0.26445663  0.08604995  0.15701467     0.14500
H272        H  0.23250074  0.29012945  0.09207252     0.14300
H273        H  0.34846749  0.16872569  0.09730757     0.32500
H274        H  0.14800054  0.20810901  0.15205961     0.35300
C275        C  0.78379385  0.20776574  0.13867459     0.20900
C276        C  0.76430205  0.17832957  0.16436079    -0.39000
C277        C  0.73520337  0.15550443  0.14160756     0.19800
C278        C  0.72610747  0.16140609  0.09668965     0.22500
C279        C  0.74583161  0.19078913  0.07082571    -0.39500
C280        C  0.77492687  0.21382957  0.09371727     0.21300
N281        N  0.81203940  0.23380003  0.15286718    -0.32800
C282        C  0.82146139  0.25681293  0.11674830    -0.10400
C283        C  0.79876662  0.24525541  0.07917065    -0.29200
N284        N  0.69590747  0.13691128  0.08370490    -0.45800
C285        C  0.68570055  0.11537398  0.12076949    -0.05000
C286        C  0.70985602  0.12607951  0.15739153    -0.22400
H287        H  0.77088823  0.17392997  0.19966955     0.19400
H288        H  0.73856486  0.19582366  0.03578801     0.18200
H289        H  0.79977691  0.25779762  0.04563748     0.14500
H290        H  0.70814326  0.11507591  0.19155365     0.14300
H291        H  0.82351113  0.23608317  0.18551092     0.32500
H292        H  0.68298514  0.13529553  0.05168816     0.35300
C293        C  0.74114203  0.14763195  0.37835779     0.20900
C294        C  0.78101017  0.15713233  0.36646535    -0.39000
C295        C  0.79252174  0.19745100  0.37325094     0.19800
C296        C  0.76639128  0.22592131  0.39079028     0.22500
C297        C  0.72667305  0.21639534  0.40286259    -0.39500
C298        C  0.71515202  0.17619578  0.39595846     0.21300
N299        N  0.72220316  0.11206418  0.37313961    -0.32800
C300        C  0.68376182  0.11804826  0.38737012    -0.10400
C301        C  0.67845921  0.15771089  0.40221603    -0.29200
N302        N  0.78427849  0.26215687  0.39340484    -0.45800
C303        C  0.82222842  0.25695972  0.37741864    -0.05000
C304        C  0.82842125  0.21686815  0.36440628    -0.22400
H305        H  0.80130710  0.13496804  0.35225384     0.19400
H306        H  0.70607742  0.23878430  0.41607382     0.18200
H307        H  0.65102704  0.17174687  0.41416889     0.14500
H308        H  0.85556975  0.20355302  0.35075120     0.14300
H309        H  0.73472516  0.08556138  0.36021742     0.32500
H310        H  0.77100129  0.28888808  0.40470356     0.35300
C311        C  0.26523969  0.15491550  0.35974363     0.20900
C312        C  0.22662471  0.16569052  0.34458280    -0.39000
C313        C  0.21353975  0.20440227  0.35678560     0.19800
C314        C  0.23705624  0.23038537  0.38209435     0.22500
C315        C  0.27572212  0.21962531  0.39722690    -0.39500
C316        C  0.28879794  0.18085795  0.38505581     0.21300
N317        N  0.28427497  0.11966009  0.35314858    -0.32800
C318        C  0.32045831  0.12291511  0.37442093    -0.10400
C319        C  0.32420887  0.16093115  0.39467995    -0.29200
N320        N  0.21749201  0.26522374  0.38963462    -0.45800
C321        C  0.18100877  0.26151282  0.36906782    -0.05000
C322        C  0.17767835  0.22379158  0.34813686    -0.22400
H323        H  0.20805302  0.14534809  0.32493010     0.19400
H324        H  0.29412211  0.23981184  0.41727688     0.18200
H325        H  0.34937609  0.17278920  0.41376882     0.14500
H326        H  0.15226158  0.21156057  0.32976237     0.14300
H327        H  0.27259993  0.09479969  0.33586734     0.32500
H328        H  0.22877433  0.28993775  0.40749592     0.35300
C329        C  0.26378319  0.72821531  0.13377710     0.20900
C330        C  0.22429639  0.71798924  0.14617351    -0.39000
C331        C  0.21163678  0.67914732  0.13386552     0.19800
C332        C  0.23628492  0.65261062  0.11082817     0.22500
C333        C  0.27576157  0.66287089  0.09833235    -0.39500
C334        C  0.28847447  0.70168619  0.11078175     0.21300
N335        N  0.28307951  0.76307129  0.14205890    -0.32800
C336        C  0.32054155  0.75886617  0.12427638    -0.10400
C337        C  0.32486611  0.72078855  0.10442117    -0.29200
N338        N  0.21735949  0.61731763  0.10381165    -0.45800
C339        C  0.18027156  0.62123336  0.12265612    -0.05000
C340        C  0.17571636  0.65962901  0.14161154    -0.22400
H341        H  0.20500336  0.73860290  0.16444530     0.19400
H342        H  0.29521789  0.64208399  0.08052470     0.18200
H343        H  0.35116966  0.70827285  0.08807660     0.14500
H344        H  0.14972274  0.67192101  0.15875657     0.14300
H345        H  0.27098944  0.78821707  0.15838310     0.32500
H346        H  0.22960330  0.59194685  0.08807282     0.35300
C347        C  0.71367617  0.70598397  0.11498322     0.20900
C348        C  0.72284634  0.66606138  0.10317780    -0.39000
C349        C  0.76219488  0.65343377  0.11306219     0.19800
C350        C  0.79024914  0.67857754  0.13319021     0.22500
C351        C  0.78108943  0.71857680  0.14494802    -0.39500
C352        C  0.74166576  0.73120983  0.13510920     0.21300
N353        N  0.67831283  0.72500609  0.10943315    -0.32800
C354        C  0.68359491  0.76278058  0.12617896    -0.10400
C355        C  0.72289165  0.76768571  0.14253602    -0.29200
N356        N  0.82540610  0.65919783  0.13927180    -0.45800
C357        C  0.81979083  0.62133328  0.12283438    -0.05000
C358        C  0.78058299  0.61676201  0.10617631    -0.22400
H359        H  0.70092443  0.64626671  0.08753330     0.19400
H360        H  0.80294856  0.73830413  0.16080248     0.18200
H361        H  0.73617443  0.79435033  0.15751736     0.14500
H362        H  0.76698970  0.59010555  0.09153118     0.14300
H363        H  0.65204597  0.71249396  0.09582665     0.32500
H364        H  0.85167179  0.67141949  0.15320687     0.35300
C365        C  0.28520936  0.70599001  0.39266812     0.20900
C366        C  0.27523185  0.66597269  0.40306992    -0.39000
C367        C  0.23586680  0.65406768  0.39191909     0.19800
C368        C  0.20848137  0.67993279  0.37195038     0.22500
C369        C  0.21842477  0.72003155  0.36166953    -0.39500
C370        C  0.25787005  0.73192190  0.37272161     0.21300
N371        N  0.32098664  0.72427202  0.39878072    -0.32800
C372        C  0.31661899  0.76220767  0.38237083    -0.10400
C373        C  0.27745028  0.76802767  0.36601074    -0.29200
N374        N  0.17326692  0.66099877  0.36411817    -0.45800
C375        C  0.17819782  0.62271138  0.37933105    -0.05000
C376        C  0.21699472  0.61742619  0.39689704    -0.22400
H377        H  0.29665068  0.64550120  0.41834930     0.19400
H378        H  0.19721075  0.74030972  0.34573266     0.18200
H379        H  0.26484973  0.79493146  0.35100407     0.14500
H380        H  0.23008441  0.59027332  0.41079063     0.14300
H381        H  0.34701558  0.71113489  0.41212338     0.32500
H382        H  0.14744409  0.67366081  0.34974081     0.35300
C383        C  0.73385363  0.72667057  0.36036621     0.20900
C384        C  0.77390968  0.71745555  0.34943336    -0.39000
C385        C  0.78610399  0.67788308  0.35866440     0.19800
C386        C  0.76043282  0.64964400  0.37736789     0.22500
C387        C  0.72029205  0.65885074  0.38825970    -0.39500
C388        C  0.70809758  0.69851773  0.37909414     0.21300
N389        N  0.71529071  0.76234827  0.35557203    -0.32800
C390        C  0.67730230  0.75712204  0.37146680    -0.10400
C391        C  0.67175210  0.71752134  0.38641790    -0.29200
N392        N  0.77964157  0.61442951  0.38362229    -0.45800
C393        C  0.81792818  0.62026291  0.36881508    -0.05000
C394        C  0.82293001  0.65957628  0.35288133    -0.22400
H395        H  0.79417291  0.73956346  0.33510294     0.19400
H396        H  0.70020695  0.63691152  0.40320299     0.18200
H397        H  0.64484573  0.70426735  0.40069270     0.14500
H398        H  0.85003483  0.67335469  0.33972397     0.14300
H399        H  0.72828079  0.78881394  0.34326557     0.32500
H400        H  0.76717015  0.58808281  0.39686986     0.35300
O401        O  0.46133078  0.78677908  0.54837226    -0.71300
O402        O  0.54142910  0.78638745  0.95730115    -0.71500
O403        O  0.54290618  0.78725214  0.54711892    -0.71300
O404        O  0.45977692  0.78602282  0.95885408    -0.71300
O405        O  0.46051256  0.85158572  0.95796552    -0.71300
O406        O  0.54166016  0.85281381  0.54750851    -0.71300
O407        O  0.54113832  0.85194381  0.95730822    -0.71300
O408        O  0.46106683  0.85236100  0.54798239    -0.71500
V409        V  0.50136716  0.78795960  0.50288912     1.35200
V410        V  0.50112377  0.85071453  0.00275881     1.35200
C411        C  0.44721201  0.81961222  0.56320803     0.78000
C412        C  0.55503995  0.81921152  0.94191589     0.78000
C413        C  0.55635523  0.82031016  0.56234708     0.77900
C414        C  0.44590700  0.81879669  0.94356002     0.77900
C415        C  0.64671789  0.78966291  0.87322975     0.03600
C416        C  0.61474661  0.78793684  0.90422137    -0.12500
C417        C  0.58676396  0.81959449  0.90724610     0.01100
C418        C  0.58993375  0.85242448  0.87786100    -0.11000
C419        C  0.62104403  0.85416618  0.84612204     0.03600
C420        C  0.64968203  0.82309959  0.84437384    -0.10500
H421        H  0.61247556  0.76283518  0.92730763     0.09200
H422        H  0.56800250  0.87663471  0.87952004     0.06800
H423        H  0.67324455  0.82436030  0.81926739     0.06600
C424        C  0.34954984  0.79265656  0.88096603     0.03600
C425        C  0.38242232  0.79014381  0.91087150    -0.12500
C426        C  0.41315368  0.81931281  0.91006471     0.01100
C427        C  0.41158339  0.85045435  0.87833842    -0.11000
C428        C  0.37943080  0.85301412  0.84789451     0.03600
C429        C  0.34831287  0.82439629  0.84968595    -0.10500
H430        H  0.38343952  0.76657476  0.93598686     0.09200
H431        H  0.43540348  0.87287560  0.87747127     0.06800
H432        H  0.32381557  0.82625909  0.82565958     0.06600
C433        C  0.65146533  0.79410882  0.62666555     0.03600
C434        C  0.65286608  0.82621649  0.65768078    -0.12500
C435        C  0.62203554  0.85523725  0.65878372     0.01100
C436        C  0.59027332  0.85275425  0.62775360    -0.11000
C437        C  0.58876397  0.82131776  0.59622265     0.03600
C438        C  0.61905576  0.79183249  0.59619133    -0.10500
H439        H  0.67711389  0.82796387  0.68205207     0.09200
H440        H  0.56666910  0.87538132  0.62810437     0.06800
H441        H  0.61800685  0.76806226  0.57120608     0.06600
C442        C  0.35201876  0.79099759  0.62545459     0.03600
C443        C  0.38484064  0.78975878  0.59560948    -0.12500
C444        C  0.41457793  0.81981922  0.59659304     0.01100
C445        C  0.41210239  0.85093198  0.62832176    -0.11000
C446        C  0.37996527  0.85244724  0.65880473     0.03600
C447        C  0.34975593  0.82274422  0.65692328    -0.10500
H448        H  0.38670617  0.76626913  0.57037150     0.09200
H449        H  0.43525733  0.87404327  0.62925573     0.06800
H450        H  0.32540381  0.82380986  0.68105191     0.06600
O451        O  0.58894549  0.98207799  0.70836476    -0.71300
O452        O  0.58924851  0.90153874  0.79824144    -0.71500
O453        O  0.58922646  0.98220224  0.79869927    -0.71300
O454        O  0.58941366  0.90151640  0.70799929    -0.71300
O455        O  0.65497043  0.90134419  0.70846872    -0.71300
O456        O  0.65476734  0.98283438  0.79864408    -0.71300
O457        O  0.65481842  0.90107473  0.79824442    -0.71300
O458        O  0.65449979  0.98282903  0.70866675    -0.71500
V459        V  0.59052990  0.94186187  0.75335986     1.35200
V460        V  0.65352754  0.94206154  0.75352711     1.35200
C461        C  0.62154914  0.99622409  0.69320205     0.78000
C462        C  0.62189882  0.88714125  0.81309429     0.78000
C463        C  0.62192079  0.99643068  0.81399343     0.77900
C464        C  0.62221135  0.88744637  0.69303958     0.77900
O465        O  0.41086547  0.98015344  0.79827446    -0.71300
O466        O  0.41151680  0.89894090  0.70851740    -0.71500
O467        O  0.41080053  0.97954416  0.70798213    -0.71300
O468        O  0.41149880  0.89951771  0.79879476    -0.71300
O469        O  0.34594926  0.89838087  0.79818939    -0.71300
O470        O  0.34523941  0.97957731  0.70824348    -0.71300
O471        O  0.34596521  0.89794997  0.70833609    -0.71300
O472        O  0.34529919  0.98001861  0.79806183    -0.71500
V473        V  0.40985222  0.93952449  0.75339157     1.35200
V474        V  0.34685291  0.93897790  0.75322470     1.35200
C475        C  0.37808177  0.99420039  0.81318740     0.78000
C476        C  0.37897694  0.88444850  0.69325999     0.78000
C477        C  0.37796852  0.99347493  0.69293999     0.77900
C478        C  0.37888416  0.88504359  0.81367168     0.77900
O479        O  0.53938424  0.02894425  0.95813570    -0.71300
O480        O  0.45875716  0.02842567  0.54841238    -0.71500
O481        O  0.45875528  0.02866349  0.95812774    -0.71300
O482        O  0.53936651  0.02893393  0.54841480    -0.71300
O483        O  0.53954603  0.09452099  0.54863178    -0.71300
O484        O  0.45793616  0.09421554  0.95897188    -0.71300
O485        O  0.45776203  0.09399022  0.54844326    -0.71300
O486        O  0.53964622  0.09453138  0.95876344    -0.71500
V487        V  0.49919050  0.02993430  0.00321696     1.35200
V488        V  0.49870411  0.09312507  0.50368233     1.35200
C489        C  0.55364991  0.06174594  0.94360589     0.78000
C490        C  0.44423360  0.06096445  0.56345941     0.78000
C491        C  0.44430970  0.06135904  0.94341918     0.77900
C492        C  0.55366810  0.06167022  0.56335697     0.77900
C493        C  0.35139671  0.09032965  0.87589264     0.03600
C494        C  0.34922977  0.05738402  0.84595741    -0.12500
C495        C  0.37851203  0.02683943  0.84688818     0.01100
C496        C  0.40962204  0.02859623  0.87873562    -0.11000
C497        C  0.41210989  0.06081922  0.90915135     0.03600
C498        C  0.38328887  0.09178925  0.90727083    -0.10500
H499        H  0.32585557  0.05601887  0.82058827     0.09200
H500        H  0.43212558  0.00488202  0.87965738     0.06800
H501        H  0.38524513  0.11629429  0.93125373     0.06600
C502        C  0.65126666  0.08755942  0.88472872     0.03600
C503        C  0.61769038  0.08998898  0.91339302    -0.12500
C504        C  0.58667096  0.06135454  0.91073673     0.01100
C505        C  0.58851569  0.03077762  0.87828978    -0.11000
C506        C  0.62141030  0.02813301  0.84892652     0.03600
C507        C  0.65308120  0.05619216  0.85276586    -0.10500
H508        H  0.61629916  0.11322468  0.93900361     0.09200
H509        H  0.56434591  0.00879631  0.87612455     0.06800
H510        H  0.67824370  0.05440555  0.82971054     0.06600
C511        C  0.65127753  0.08685183  0.62343223     0.03600
C512        C  0.65251410  0.05561037  0.65529294    -0.12500
C513        C  0.62085813  0.02778788  0.65849977     0.01100
C514        C  0.58816786  0.03051712  0.62875345    -0.11000
C515        C  0.58672174  0.06108986  0.59636635     0.03600
C516        C  0.61801962  0.08955688  0.59418510    -0.10500
H517        H  0.67795093  0.05298296  0.67798169     0.09200
H518        H  0.56389813  0.00863557  0.63057132     0.08400
H519        H  0.61652961  0.11338842  0.56940405     0.06600
C520        C  0.34887482  0.08693177  0.62728076     0.03600
C521        C  0.34728604  0.05458399  0.65776680    -0.12500
C522        C  0.37813686  0.02562912  0.65885332     0.01100
C523        C  0.41007074  0.02830651  0.62822878    -0.11000
C524        C  0.41178810  0.05996833  0.59716714     0.03600
C525        C  0.38149890  0.08948601  0.59723876    -0.10500
H526        H  0.32291514  0.05265398  0.68184873     0.09200
H527        H  0.43366559  0.00566675  0.62855407     0.06800
H528        H  0.38268639  0.11346482  0.57263097     0.06600
O529        O  0.04054151  0.52836793  0.70316001    -0.71300
O530        O  0.95981253  0.52914909  0.79285240    -0.71500
O531        O  0.95985199  0.52880851  0.70257907    -0.71300
O532        O  0.04042453  0.52903965  0.79334464    -0.71300
O533        O  0.04070278  0.59460209  0.79326917    -0.71300
O534        O  0.96014074  0.59437450  0.70217843    -0.71300
O535        O  0.95909004  0.59471054  0.79196756    -0.71300
O536        O  0.04180537  0.59393129  0.70357359    -0.71500
V537        V  0.00016102  0.53015469  0.74796310     1.35200
V538        V  0.00042837  0.59316215  0.74772486     1.35200
C539        C  0.05535530  0.56089235  0.68855557     0.78000
C540        C  0.94539861  0.56191314  0.80740212     0.78000
C541        C  0.94597628  0.56154005  0.68724019     0.77900
C542        C  0.05444428  0.56182798  0.80861067     0.77900
O543        O  0.95822793  0.28655762  0.79147678    -0.71300
O544        O  0.03921463  0.28606639  0.70130197    -0.71500
O545        O  0.03987547  0.28680116  0.79094543    -0.71300
O546        O  0.95751979  0.28614416  0.70162334    -0.71300
O547        O  0.95899860  0.35167176  0.70019152    -0.71300
O548        O  0.03839251  0.35234931  0.79189734    -0.71300
O549        O  0.03964241  0.35163924  0.70175129    -0.71300
O550        O  0.95772285  0.35211523  0.79041226    -0.71500
V551        V  0.99868084  0.28762931  0.74633267     1.35200
V552        V  0.99866581  0.35063141  0.74605400     1.35200
C553        C  0.94400980  0.31944636  0.80605495     0.78000
C554        C  0.05360639  0.31881993  0.68668349     0.78000
C555        C  0.05323114  0.31979447  0.80645085     0.77900
C556        C  0.94429975  0.31895624  0.68569715     0.77900
O557        O  0.15312956  0.39914675  0.95272702    -0.71300
O558        O  0.15408474  0.48047385  0.54293146    -0.71500
O559        O  0.15396035  0.39885233  0.54257269    -0.71300
O560        O  0.15316074  0.48075637  0.95334527    -0.71300
O561        O  0.08758610  0.48066726  0.95420495    -0.71300
O562        O  0.08838965  0.39901563  0.54288346    -0.71300
O563        O  0.08853629  0.47958021  0.54430223    -0.71300
O564        O  0.08757533  0.40002502  0.95261119    -0.71500
V565        V  0.15241134  0.43973083  0.99790763     1.35200
V566        V  0.08926539  0.43974728  0.49847555     1.35200
C567        C  0.12015087  0.38572876  0.93734853     0.78000
C568        C  0.12142713  0.49399550  0.55877853     0.78000
C569        C  0.12117882  0.38493320  0.55776107     0.77900
C570        C  0.12013423  0.49487927  0.93895636     0.77900
C571        C  0.14669228  0.59099322  0.87728549     0.03600
C572        C  0.11506012  0.59266810  0.84568117    -0.12500
C573        C  0.08623135  0.56156933  0.84333804     0.01100
C574        C  0.08841456  0.52937763  0.87370932    -0.11000
C575        C  0.11930734  0.52768641  0.90578789     0.03600
C576        C  0.14851590  0.55820007  0.90713791    -0.10500
H577        H  0.11363411  0.61720411  0.82176810     0.09200
H578        H  0.06599339  0.50556415  0.87242680     0.06800
H579        H  0.17190321  0.55689413  0.93255257     0.06600
C580        C  0.14890977  0.29294235  0.86975126     0.03600
C581        C  0.15028449  0.32468626  0.90125086    -0.12500
C582        C  0.11955048  0.35379938  0.90279651     0.01100
C583        C  0.08762588  0.35172127  0.87194564    -0.11000
C584        C  0.08590695  0.32059544  0.84007539     0.03600
C585        C  0.11630203  0.29116522  0.83937553    -0.10500
H586        H  0.17437706  0.32621951  0.92576381     0.09200
H587        H  0.06406159  0.37438340  0.87272636     0.06800
H588        H  0.11496779  0.26767101  0.81411223     0.06600
C589        C  0.14804758  0.29024054  0.62237383     0.03600
C590        C  0.11550107  0.28847555  0.65261294    -0.12500
C591        C  0.08624359  0.31907683  0.65322800     0.01100
C592        C  0.08891438  0.35092562  0.62258886    -0.11000
C593        C  0.12064011  0.35273004  0.59168928     0.03600
C594        C  0.15046657  0.32277028  0.59214627    -0.10500
H595        H  0.11361674  0.26426584  0.67688626     0.09200
H596        H  0.06607238  0.37433135  0.62264408     0.06800
H597        H  0.17463913  0.32412823  0.56777421     0.06600
C598        C  0.14962399  0.58856979  0.62367874     0.03600
C599        C  0.15140488  0.55615668  0.59306611    -0.12500
C600        C  0.12136563  0.52624171  0.59287562     0.01100
C601        C  0.08999040  0.52816737  0.62419711    -0.11000
C602        C  0.08794715  0.55995833  0.65511706     0.03600
C603        C  0.11755302  0.59015974  0.65457051    -0.10500
H604        H  0.17508380  0.55485630  0.56812445     0.09200
H605        H  0.06690013  0.50497809  0.62429304     0.06800
H606        H  0.11598818  0.61422931  0.67913695     0.06600
O607        O  0.91069028  0.48129498  0.54208761    -0.71300
O608        O  0.91094475  0.40103981  0.95110611    -0.71500
O609        O  0.91067819  0.48158338  0.95211105    -0.71300
O610        O  0.91052009  0.40077130  0.54160350    -0.71300
O611        O  0.84494609  0.40044096  0.54132058    -0.71300
O612        O  0.84511773  0.48161419  0.95183266    -0.71300
O613        O  0.84537307  0.40001195  0.95155954    -0.71300
O614        O  0.84513391  0.48212363  0.54150511    -0.71500
V615        V  0.90933300  0.44119554  0.49673554     1.35200
V616        V  0.84647085  0.44072842  0.99661151     1.35200
C617        C  0.87807113  0.49561623  0.55704718     0.78000
C618        C  0.87829180  0.38653912  0.93625049     0.78000
C619        C  0.87795764  0.49555234  0.93682458     0.77900
C620        C  0.87778356  0.38651700  0.55638562     0.77900
C621        C  0.85226369  0.29012010  0.87463795     0.03600
C622        C  0.84998097  0.32316723  0.90415981    -0.12500
C623        C  0.87890647  0.35395365  0.90270095     0.01100
C624        C  0.90970331  0.35236330  0.87061984    -0.11000
C625        C  0.91211564  0.31995534  0.84042988     0.03600
C626        C  0.88370432  0.28857891  0.84297320    -0.10500
H627        H  0.82679469  0.32420823  0.92972279     0.09200
H628        H  0.93199446  0.37629030  0.86935993     0.06800
H629        H  0.88545970  0.26366691  0.81944119     0.06600
C630        C  0.84985966  0.58886398  0.87018964     0.03600
C631        C  0.84775664  0.55669048  0.90088091    -0.12500
C632        C  0.87848863  0.52761351  0.90258489     0.01100
C633        C  0.91069911  0.52995229  0.87226000    -0.11000
C634        C  0.91287424  0.56142482  0.84100166     0.03600
C635        C  0.88286369  0.59117399  0.84065334    -0.10500
H636        H  0.82315713  0.55501451  0.92468463     0.09200
H637        H  0.93413567  0.50715434  0.87293023     0.06800
H638        H  0.88448418  0.61514759  0.81605236     0.06600
C639        C  0.85154883  0.59006574  0.62262579     0.03600
C640        C  0.88411828  0.59173183  0.65297140    -0.12500
C641        C  0.91346631  0.56121331  0.65337216     0.01100
C642        C  0.91082364  0.52948224  0.62231877    -0.11000
C643        C  0.87894198  0.52772060  0.59134626     0.03600
C644        C  0.84911520  0.55767180  0.59207386    -0.10500
H645        H  0.88595215  0.61582155  0.67752042     0.09200
H646        H  0.93371181  0.50612926  0.62219032     0.06800
H647        H  0.82489774  0.55640516  0.56763703     0.06600
C648        C  0.85072860  0.29096742  0.61894994     0.03600
C649        C  0.88290150  0.28895769  0.64980709    -0.12500
C650        C  0.91210075  0.31956183  0.65147452     0.01100
C651        C  0.90974418  0.35174554  0.62114654    -0.11000
C652        C  0.87829066  0.35385230  0.58974543     0.03600
C653        C  0.84852774  0.32376030  0.58916130    -0.10500
H654        H  0.88523696  0.26382533  0.67283666     0.09200
H655        H  0.93252928  0.37522405  0.62189689     0.06800
H656        H  0.82405998  0.32569918  0.56508147     0.06600
C657        C  0.28648106  0.17479297  0.61623935     0.20900
C658        C  0.27716272  0.21470056  0.60472917    -0.39000
C659        C  0.23755913  0.22692024  0.61378531     0.19800
C660        C  0.20941566  0.20145150  0.63299090     0.22500
C661        C  0.21873610  0.16146594  0.64451145    -0.39500
C662        C  0.25840008  0.14920715  0.63538264     0.21300
N663        N  0.32200611  0.15602725  0.61095644    -0.32800
C664        C  0.31672241  0.11803863  0.62683266    -0.10400
C665        C  0.27728480  0.11274766  0.64243070    -0.29200
N666        N  0.17400527  0.22051882  0.63843997    -0.45800
C667        C  0.17958460  0.25849288  0.62251379    -0.05000
C668        C  0.21897547  0.26344715  0.60679179    -0.22400
H669        H  0.29913211  0.23475014  0.58978069     0.19400
H670        H  0.19679334  0.14144824  0.65956012     0.18200
H671        H  0.26395468  0.08581091  0.65655186     0.14500
H672        H  0.23257270  0.29029514  0.59278229     0.14300
H673        H  0.34832386  0.16877158  0.59796743     0.32500
H674        H  0.14764852  0.20808499  0.65170059     0.35300
C675        C  0.78206083  0.20967163  0.63970798     0.20900
C676        C  0.76311026  0.17969815  0.66512112    -0.39000
C677        C  0.73374594  0.15714010  0.64246689     0.19800
C678        C  0.72386371  0.16382333  0.59790031     0.22500
C679        C  0.74301023  0.19378144  0.57230025    -0.39500
C680        C  0.77242868  0.21650633  0.59508845     0.21300
N681        N  0.81070704  0.23531046  0.65380174    -0.32800
C682        C  0.81969728  0.25880731  0.61794185    -0.10400
C683        C  0.79621928  0.24801230  0.58065102    -0.29200
N684        N  0.69372260  0.13925251  0.58493260    -0.45800
C685        C  0.68433079  0.11687169  0.62166081    -0.05000
C686        C  0.70896876  0.12713448  0.65804073    -0.22400
H687        H  0.77039922  0.17460411  0.70013946     0.19400
H688        H  0.73521236  0.19934086  0.53750303     0.18200
H689        H  0.79680896  0.26096125  0.54729771     0.14500
H690        H  0.70798595  0.11542252  0.69194241     0.14300
H691        H  0.82283867  0.23690129  0.68619840     0.32500
H692        H  0.68037491  0.13809334  0.55310950     0.35300
C693        C  0.74115238  0.14788274  0.87908648     0.20900
C694        C  0.78097657  0.15742592  0.86711838    -0.39000
C695        C  0.79245646  0.19773702  0.87387947     0.19800
C696        C  0.76636474  0.22617990  0.89154081     0.22500
C697        C  0.72669372  0.21659815  0.90379820    -0.39500
C698        C  0.71517632  0.17638859  0.89683647     0.21300
N699        N  0.72217966  0.11237899  0.87352515    -0.32800
C700        C  0.68370995  0.11831798  0.88764669    -0.10400
C701        C  0.67843966  0.15789719  0.90284677    -0.29200
N702        N  0.78417531  0.26247373  0.89382651    -0.45800
C703        C  0.82201801  0.25730172  0.87748847    -0.05000
C704        C  0.82823113  0.21719618  0.86463061    -0.22400
H705        H  0.80122278  0.13532428  0.85270017     0.19400
H706        H  0.70608872  0.23897798  0.91701345     0.18200
H707        H  0.65098443  0.17191126  0.91476709     0.14500
H708        H  0.85530221  0.20390836  0.85075584     0.14300
H709        H  0.73468235  0.08596548  0.86035496     0.32500
H710        H  0.77090312  0.28922045  0.90508609     0.35300
C711        C  0.26546269  0.15508026  0.85941183     0.20900
C712        C  0.22682776  0.16580230  0.84425780    -0.39000
C713        C  0.21371110  0.20452176  0.85639897     0.19800
C714        C  0.23722099  0.23056469  0.88163657     0.22500
C715        C  0.27592223  0.21986761  0.89673254    -0.39500
C716        C  0.28902668  0.18108722  0.88463449     0.21300
N717        N  0.28448208  0.11979420  0.85296333    -0.32800
C718        C  0.32066436  0.12309218  0.87423303    -0.10400
C719        C  0.32443309  0.16116841  0.89434348    -0.29200
N720        N  0.21756064  0.26533605  0.88928130    -0.45800
C721        C  0.18101412  0.26151958  0.86886910    -0.05000
C722        C  0.17776087  0.22380820  0.84789380    -0.22400
H723        H  0.20823929  0.14539190  0.82471255     0.19400
H724        H  0.29430335  0.24008722  0.91676201     0.18200
H725        H  0.34959790  0.17305044  0.91341883     0.14500
H726        H  0.15231415  0.21148930  0.82964471     0.14300
H727        H  0.27278463  0.09487482  0.83580730     0.32500
H728        H  0.22880045  0.29005354  0.90716814     0.35300
C729        C  0.26378486  0.72834310  0.63337229     0.20900
C730        C  0.22442941  0.71793758  0.64607787    -0.39000
C731        C  0.21193222  0.67896446  0.63409066     0.19800
C732        C  0.23659576  0.65244771  0.61104794     0.22500
C733        C  0.27595753  0.66288984  0.59822818    -0.39500
C734        C  0.28851505  0.70185468  0.61036828     0.21300
N735        N  0.28295776  0.76330060  0.64150044    -0.32800
C736        C  0.32040366  0.75920605  0.62365891    -0.10400
C737        C  0.32481331  0.72111403  0.60383206    -0.29200
N738        N  0.21773319  0.61707415  0.60419503    -0.45800
C739        C  0.18066339  0.62095532  0.62311590    -0.05000
C740        C  0.17609389  0.65936503  0.64202208    -0.22400
H741        H  0.20510711  0.73852680  0.66434451     0.19400
H742        H  0.29544219  0.64213515  0.58041237     0.18200
H743        H  0.35115989  0.70864742  0.58752548     0.14500
H744        H  0.15007434  0.67167172  0.65910494     0.14300
H745        H  0.27084257  0.78840096  0.65788853     0.32500
H746        H  0.22993622  0.59172637  0.58837040     0.35300
C747        C  0.71376166  0.70621220  0.61499465     0.20900
C748        C  0.72298297  0.66626849  0.60338377    -0.39000
C749        C  0.76236082  0.65376402  0.61326708     0.19800
C750        C  0.79041426  0.67902792  0.63321364     0.22500
C751        C  0.78119616  0.71904831  0.64480629    -0.39500
C752        C  0.74173236  0.73156058  0.63496879     0.21300
N753        N  0.67835333  0.72513974  0.60940699    -0.32800
C754        C  0.68358479  0.76296384  0.62601574    -0.10400
C755        C  0.72289416  0.76801097  0.64227508    -0.29200
N756        N  0.82564206  0.65975036  0.63921851    -0.45800
C757        C  0.82004667  0.62184870  0.62288475    -0.05000
C758        C  0.78079707  0.61713369  0.60643354    -0.22400
H759        H  0.70108445  0.64637323  0.58785784     0.19400
H760        H  0.80304152  0.73888318  0.66051701     0.18200
H761        H  0.73613553  0.79474701  0.65714219     0.14500
H762        H  0.76721985  0.59041926  0.59190287     0.14300
H763        H  0.65208784  0.71253940  0.59589713     0.32500
H764        H  0.85193981  0.67205429  0.65298794     0.35300
C765        C  0.28522190  0.70607702  0.89222317     0.20900
C766        C  0.27529252  0.66603053  0.90246576    -0.39000
C767        C  0.23593429  0.65413830  0.89133711     0.19800
C768        C  0.20849718  0.68002800  0.87149822     0.22500
C769        C  0.21840176  0.72017523  0.86134354    -0.39500
C770        C  0.25785456  0.73206648  0.87241234     0.21300
N771        N  0.32097916  0.72434566  0.89843815    -0.32800
C772        C  0.31659130  0.76234079  0.88224192    -0.10400
C773        C  0.27741899  0.76822018  0.86589929    -0.29200
N774        N  0.17325641  0.66108740  0.86378180    -0.45800
C775        C  0.17824177  0.62279144  0.87897753    -0.05000
C776        C  0.21709257  0.61749995  0.89635770    -0.22400
H777        H  0.29673284  0.64553807  0.91767198     0.19400
H778        H  0.19714672  0.74049692  0.84554318     0.18200
H779        H  0.26481793  0.79518652  0.85103031     0.14500
H780        H  0.23022151  0.59035098  0.91021329     0.14300
H781        H  0.34701720  0.71116079  0.91170125     0.32500
H782        H  0.14737411  0.67375398  0.84954159     0.35300
C783        C  0.73392643  0.72663409  0.86061496     0.20900
C784        C  0.77404238  0.71744044  0.84990785    -0.39000
C785        C  0.78618676  0.67783348  0.85907029     0.19800
C786        C  0.76042268  0.64954952  0.87753244     0.22500
C787        C  0.72023189  0.65873959  0.88821852    -0.39500
C788        C  0.70807942  0.69843117  0.87909415     0.21300
N789        N  0.71536215  0.76231304  0.85575965    -0.32800
C790        C  0.67728474  0.75703882  0.87137265    -0.10400
C791        C  0.67167862  0.71740354  0.88619570    -0.29200
N792        N  0.77957054  0.61428455  0.88369359    -0.45800
C793        C  0.81790492  0.62012330  0.86904670    -0.05000
C794        C  0.82300924  0.65949732  0.85333702    -0.22400
H795        H  0.79437142  0.73957482  0.83574415     0.19400
H796        H  0.70006373  0.63675587  0.90294127     0.18200
H797        H  0.64469844  0.70410946  0.90025163     0.14500
H798        H  0.85016884  0.67327647  0.84031922     0.14300
H799        H  0.72839255  0.78881397  0.84359838     0.32500
H800        H  0.76702840  0.58789001  0.89674110     0.35300
loop_ 
_geom_bond_atom_site_label_1 
_geom_bond_atom_site_label_2 
_geom_bond_distance 
_geom_bond_site_symmetry_2 
_ccdc_geom_bond_type 
O1            V9   1.898       .  S
O1           C11   1.264       .  A
O2          V409   1.900       .  S
O2           C12   1.264       .  A
O3            V9   1.903       .  S
O3           C13   1.265       .  A
O4          V409   1.903       .  S
O4           C14   1.265       .  A
O5           V10   1.893       .  S
O5           C14   1.263       .  A
O6          V410   1.893       .  S
O6           C13   1.263       .  A
O7           V10   1.896       .  S
O7           C12   1.264       .  A
O8          V410   1.896       .  S
O8           C11   1.264       .  A
V9          O402   1.901   1_554  S
V9          O404   1.904   1_554  S
V9          V410   2.088       .  T
V10         O406   1.893       .  S
V10         O408   1.896       .  S
V10         V409   2.089       .  T
C11          C44   1.471       .  S
C12          C17   1.473       .  S
C13          C37   1.472       .  S
C14          C26   1.472       .  S
C15         C390   1.483       .  S
C15          C16   1.407       .  A
C15          C20   1.406       .  A
C16          C17   1.404       .  A
C16          H21   1.083       .  S
C17          C18   1.401       .  A
C18          C19   1.400       .  A
C18          H22   1.084       .  S
C19          C62   1.470       .  S
C19          C20   1.401       .  A
C20          H23   1.083       .  S
C24         C372   1.485       .  S
C24          C25   1.408       .  A
C24          C29   1.407       .  A
C25          C26   1.404       .  A
C25          H30   1.083       .  S
C26          C27   1.401       .  A
C27          C28   1.400       .  A
C27          H31   1.084       .  S
C28          C78   1.472       .  S
C28          C29   1.402       .  A
C29          H32   1.083       .  S
C33         C354   1.484       .  S
C33          C34   1.408       .  A
C33          C38   1.406       .  A
C34          C35   1.405       .  A
C34          H39   1.083       .  S
C35          C64   1.475       .  S
C35          C36   1.401       .  A
C36          C37   1.401       .  A
C36          H40   1.084       .  S
C37          C38   1.401       .  A
C38          H41   1.082       .  S
C42         C336   1.486       .  S
C42          C43   1.407       .  A
C42          C47   1.409       .  A
C43          C44   1.401       .  A
C43          H48   1.082       .  S
C44          C45   1.399       .  A
C45          C46   1.401       .  A
C45          H49   1.084       .  S
C46          C76   1.473       .  S
C46          C47   1.404       .  A
C47          H50   1.082       .  S
O51          V59   1.892       .  S
O51          C61   1.262       .  A
O52          V59   1.891       .  S
O52          C62   1.262       .  A
O53          V59   1.898       .  S
O53          C63   1.265       .  A
O54          V59   1.898       .  S
O54          C64   1.265       .  A
O55          V60   1.901       .  S
O55          C64   1.264       .  A
O56          V60   1.903       .  S
O56          C63   1.265       .  A
O57          V60   1.902       .  S
O57          C62   1.265       .  A
O58          V60   1.900       .  S
O58          C61   1.265       .  A
V59          V60   2.088       .  T
C61         C113   1.471   1_565  S
C63         C106   1.476   1_565  S
O65          V73   1.894       .  S
O65          C75   1.263       .  A
O66          V73   1.894       .  S
O66          C76   1.263       .  A
O67          V73   1.895       .  S
O67          C77   1.264       .  A
O68          V73   1.895       .  S
O68          C78   1.264       .  A
O69          V74   1.900       .  S
O69          C78   1.264       .  A
O70          V74   1.900       .  S
O70          C77   1.264       .  A
O71          V74   1.904       .  S
O71          C76   1.265       .  A
O72          V74   1.904       .  S
O72          C75   1.265       .  A
V73          V74   2.088       .  T
C75          C95   1.473   1_565  S
C77         C122   1.472   1_565  S
O79          V87   1.892       .  S
O79          C89   1.263       .  A
O80         V487   1.894       .  S
O80          C90   1.263       .  A
O81          V87   1.895       .  S
O81          C91   1.264       .  A
O82         V487   1.894       .  S
O82          C92   1.263       .  A
O83          V88   1.902       .  S
O83          C92   1.265       .  A
O84         V488   1.902       .  S
O84          C91   1.265       .  A
O85          V88   1.903       .  S
O85          C90   1.265       .  A
O86         V488   1.902       .  S
O86          C89   1.265       .  A
V87         O480   1.893       .  S
V87         O482   1.894       .  S
V87         V488   2.089       .  T
V88         O484   1.903   1_554  S
V88         O486   1.901   1_554  S
V88         V487   2.089       .  T
C89         C104   1.470       .  S
C90         C124   1.472       .  S
C91          C97   1.474       .  S
C92         C115   1.470       .  S
C93         C318   1.490       .  S
C93          C94   1.409       .  A
C93          C98   1.409       .  A
C94          C95   1.403       .  A
C94          H99   1.081       .  S
C95          C96   1.400       .  A
C96          C97   1.400       .  A
C96         H100   1.084       .  S
C97          C98   1.404       .  A
C98         H101   1.082       .  S
C102        C300   1.483       .  S
C102        C103   1.406       .  A
C102        C107   1.408       .  A
C103        C104   1.401       .  A
C103        H108   1.083       .  S
C104        C105   1.400       .  A
C105        C106   1.402       .  A
C105        H109   1.084       .  S
C106        C107   1.405       .  A
C107        H110   1.083       .  S
C111        C285   1.480       .  S
C111        C112   1.405       .  A
C111        C116   1.406       .  A
C112        C113   1.399       .  A
C112        H117   1.083       .  S
C113        C114   1.401       .  A
C114        C115   1.401       .  A
C114        H118   1.084       .  S
C115        C116   1.404       .  A
C116        H119   1.083       .  S
C120        C264   1.484       .  S
C120        C121   1.407       .  A
C120        C125   1.407       .  A
C121        C122   1.403       .  A
C121        H126   1.083       .  S
C122        C123   1.401       .  A
C123        C124   1.401       .  A
C123        H127   1.084       .  S
C124        C125   1.403       .  A
C125        H128   1.082       .  S
O129        V137   1.892       .  S
O129        C139   1.263       .  A
O130        V137   1.892   1_655  S
O130        C140   1.263       .  A
O131        V137   1.897   1_655  S
O131        C141   1.264       .  A
O132        V137   1.896       .  S
O132        C142   1.265       .  A
O133        V138   1.901       .  S
O133        C142   1.264       .  A
O134        V138   1.901   1_655  S
O134        C141   1.265       .  A
O135        V138   1.902   1_655  S
O135        C140   1.265       .  A
O136        V138   1.901       .  S
O136        C139   1.265       .  A
V137        V138   2.088       .  T
C139        C202   1.470       .  S
C140        C234   1.471       .  S
C141        C241   1.474       .  S
C142        C173   1.474       .  S
O143        V151   1.901       .  S
O143        C153   1.264       .  A
O144        V151   1.900   1_455  S
O144        C154   1.264       .  A
O145        V151   1.901   1_455  S
O145        C155   1.265       .  A
O146        V151   1.903       .  S
O146        C156   1.265       .  A
O147        V152   1.893       .  S
O147        C156   1.263       .  A
O148        V152   1.894   1_455  S
O148        C155   1.263       .  A
O149        V152   1.895   1_455  S
O149        C154   1.264       .  A
O150        V152   1.897       .  S
O150        C153   1.264       .  A
V151        V152   2.088       .  T
C153        C225   1.474       .  S
C154        C191   1.472       .  S
C155        C184   1.472       .  S
C156        C250   1.473       .  S
O157        V165   1.899       .  S
O157        C167   1.264       .  A
O158        V565   1.900   1_554  S
O158        C168   1.264       .  A
O159        V565   1.903   1_554  S
O159        C169   1.265       .  A
O160        V165   1.900       .  S
O160        C170   1.265       .  A
O161        V566   1.893       .  S
O161        C170   1.262       .  A
O162        V166   1.891   1_554  S
O162        C169   1.263       .  A
O163        V166   1.895   1_554  S
O163        C168   1.264       .  A
O164        V566   1.897       .  S
O164        C167   1.264       .  A
V165        O558   1.900       .  S
V165        O559   1.903       .  S
V165        V566   2.089       .  T
V166        O561   1.893       .  S
V166        O564   1.897       .  S
V166        V565   2.089       .  T
C167        C182   1.473       .  S
C168        C200   1.471       .  S
C169        C193   1.471       .  S
C170        C175   1.470       .  S
C171        C375   1.485       .  S
C171        C172   1.408       .  A
C171        C176   1.406       .  A
C172        C173   1.407       .  A
C172        H177   1.083       .  S
C173        C174   1.402       .  A
C174        C175   1.399       .  A
C174        H178   1.084       .  S
C175        C176   1.400       .  A
C176        H179   1.083       .  S
C180        C321   1.489       .  S
C180        C181   1.408       .  A
C180        C185   1.408       .  A
C181        C182   1.404       .  A
C181        H186   1.081       .  S
C182        C183   1.401       .  A
C183        C184   1.400       .  A
C183        H187   1.084       .  S
C184        C185   1.403       .  A
C185        H188   1.082       .  S
C189        C267   1.485       .  S
C189        C190   1.408       .  A
C189        C194   1.408       .  A
C190        C191   1.404       .  A
C190        H195   1.082       .  S
C191        C192   1.399       .  A
C192        C193   1.400       .  A
C192        H196   1.084       .  S
C193        C194   1.402       .  A
C194        H197   1.083       .  S
C198        C339   1.486       .  S
C198        C199   1.408       .  A
C198        C203   1.407       .  A
C199        C200   1.404       .  A
C199        H204   1.082       .  S
C200        C201   1.399       .  A
C201        C202   1.399       .  A
C201        H205   1.084       .  S
C202        C203   1.401       .  A
C203        H206   1.082       .  S
O207        V215   1.893   1_554  S
O207        C217   1.263       .  A
O208        V615   1.893       .  S
O208        C218   1.263       .  A
O209        V615   1.895       .  S
O209        C219   1.264       .  A
O210        V215   1.894   1_554  S
O210        C220   1.263       .  A
O211        V616   1.903   1_554  S
O211        C220   1.265       .  A
O212        V216   1.901       .  S
O212        C219   1.264       .  A
O213        V216   1.903       .  S
O213        C218   1.265       .  A
O214        V616   1.903   1_554  S
O214        C217   1.265       .  A
V215        O608   1.893       .  S
V215        O609   1.895       .  S
V215        V616   2.089       .  T
V216        O611   1.900       .  S
V216        O614   1.905       .  S
V216        V615   2.089       .  T
C217        C243   1.473       .  S
C218        C223   1.472       .  S
C219        C232   1.473       .  S
C220        C252   1.472       .  S
C221        C303   1.482       .  S
C221        C222   1.406       .  A
C221        C226   1.407       .  A
C222        C223   1.401       .  A
C222        H227   1.083       .  S
C223        C224   1.401       .  A
C224        C225   1.402       .  A
C224        H228   1.084       .  S
C225        C226   1.405       .  A
C226        H229   1.083       .  S
C230        C393   1.483       .  S
C230        C231   1.407       .  A
C230        C235   1.407       .  A
C231        C232   1.404       .  A
C231        H236   1.083       .  S
C232        C233   1.401       .  A
C233        C234   1.400       .  A
C233        H237   1.084       .  S
C234        C235   1.401       .  A
C235        H238   1.083       .  S
C239        C357   1.485       .  S
C239        C240   1.407       .  A
C239        C244   1.408       .  A
C240        C241   1.404       .  A
C240        H245   1.082       .  S
C241        C242   1.401       .  A
C242        C243   1.401       .  A
C242        H246   1.084       .  S
C243        C244   1.402       .  A
C244        H247   1.083       .  S
C248        C282   1.480       .  S
C248        C249   1.406       .  A
C248        C253   1.406       .  A
C249        C250   1.401       .  A
C249        H254   1.083       .  S
C250        C251   1.401       .  A
C251        C252   1.401       .  A
C251        H255   1.084       .  S
C252        C253   1.403       .  A
C253        H256   1.083       .  S
C257        C262   1.383       .  A
C257        C258   1.402       .  A
C257        N263   1.342       .  A
C258        C259   1.401       .  A
C258        H269   1.082       .  S
C259        C268   1.375       .  A
C259        C260   1.383       .  A
C260        C261   1.404       .  A
C260        N266   1.344       .  A
C261        C262   1.403       .  A
C261        H270   1.082       .  S
C262        C265   1.378       .  A
N263        C264   1.357       .  A
N263        H273   1.044       .  S
C264        C265   1.399       .  A
C265        H271   1.082       .  S
N266        C267   1.359       .  A
N266        H274   1.044       .  S
C267        C268   1.398       .  A
C268        H272   1.082       .  S
C275        C280   1.384       .  A
C275        C276   1.399       .  A
C275        N281   1.340       .  A
C276        C277   1.398       .  A
C276        H287   1.083       .  S
C277        C286   1.371       .  A
C277        C278   1.384       .  A
C278        C279   1.404       .  A
C278        N284   1.344       .  A
C279        C280   1.404       .  A
C279        H288   1.083       .  S
C280        C283   1.378       .  A
N281        C282   1.356       .  A
N281        H291   1.045       .  S
C282        C283   1.399       .  A
C283        H289   1.082       .  S
N284        C285   1.358       .  A
N284        H292   1.045       .  S
C285        C286   1.396       .  A
C286        H290   1.082       .  S
C293        C298   1.383       .  A
C293        C294   1.404       .  A
C293        N299   1.344       .  A
C294        C295   1.404       .  A
C294        H305   1.082       .  S
C295        C304   1.379       .  A
C295        C296   1.383       .  A
C296        C297   1.401       .  A
C296        N302   1.341       .  A
C297        C298   1.400       .  A
C297        H306   1.082       .  S
C298        C301   1.375       .  A
N299        C300   1.358       .  A
N299        H309   1.045       .  S
C300        C301   1.397       .  A
C301        H307   1.082       .  S
N302        C303   1.357       .  A
N302        H310   1.045       .  S
C303        C304   1.399       .  A
C304        H308   1.082       .  S
C311        C316   1.382       .  A
C311        C312   1.403       .  A
C311        N317   1.343       .  A
C312        C313   1.402       .  A
C312        H323   1.082       .  S
C313        C322   1.376       .  A
C313        C314   1.382       .  A
C314        C315   1.404       .  A
C314        N320   1.343       .  A
C315        C316   1.403       .  A
C315        H324   1.082       .  S
C316        C319   1.377       .  A
N317        C318   1.359       .  A
N317        H327   1.044       .  S
C318        C319   1.401       .  A
C319        H325   1.081       .  S
N320        C321   1.360       .  A
N320        H328   1.044       .  S
C321        C322   1.400       .  A
C322        H326   1.081       .  S
C329        C334   1.383       .  A
C329        C330   1.402       .  A
C329        N335   1.342       .  A
C330        C331   1.401       .  A
C330        H341   1.082       .  S
C331        C340   1.375       .  A
C331        C332   1.383       .  A
C332        C333   1.403       .  A
C332        N338   1.343       .  A
C333        C334   1.402       .  A
C333        H342   1.082       .  S
C334        C337   1.376       .  A
N335        C336   1.358       .  A
N335        H345   1.044       .  S
C336        C337   1.400       .  A
C337        H343   1.082       .  S
N338        C339   1.358       .  A
N338        H346   1.044       .  S
C339        C340   1.399       .  A
C340        H344   1.082       .  S
C347        C352   1.383       .  A
C347        C348   1.402       .  A
C347        N353   1.341       .  A
C348        C349   1.401       .  A
C348        H359   1.082       .  S
C349        C358   1.375       .  A
C349        C350   1.383       .  A
C350        C351   1.404       .  A
C350        N356   1.343       .  A
C351        C352   1.403       .  A
C351        H360   1.082       .  S
C352        C355   1.378       .  A
N353        C354   1.358       .  A
N353        H363   1.045       .  S
C354        C355   1.399       .  A
C355        H361   1.082       .  S
N356        C357   1.358       .  A
N356        H364   1.045       .  S
C357        C358   1.398       .  A
C358        H362   1.082       .  S
C365        C370   1.383       .  A
C365        C366   1.402       .  A
C365        N371   1.343       .  A
C366        C367   1.402       .  A
C366        H377   1.082       .  S
C367        C376   1.374       .  A
C367        C368   1.383       .  A
C368        C369   1.404       .  A
C368        N374   1.345       .  A
C369        C370   1.404       .  A
C369        H378   1.082       .  S
C370        C373   1.376       .  A
N371        C372   1.358       .  A
N371        H381   1.045       .  S
C372        C373   1.399       .  A
C373        H379   1.082       .  S
N374        C375   1.358       .  A
N374        H382   1.045       .  S
C375        C376   1.398       .  A
C376        H380   1.082       .  S
C383        C388   1.383       .  A
C383        C384   1.401       .  A
C383        N389   1.341       .  A
C384        C385   1.400       .  A
C384        H395   1.082       .  S
C385        C394   1.374       .  A
C385        C386   1.383       .  A
C386        C387   1.404       .  A
C386        N392   1.343       .  A
C387        C388   1.403       .  A
C387        H396   1.082       .  S
C388        C391   1.377       .  A
N389        C390   1.357       .  A
N389        H399   1.044       .  S
C390        C391   1.399       .  A
C391        H397   1.082       .  S
N392        C393   1.358       .  A
N392        H400   1.044       .  S
C393        C394   1.397       .  A
C394        H398   1.082       .  S
O401        V409   1.898       .  S
O401        C411   1.264       .  A
O402        C412   1.265       .  A
O403        V409   1.903       .  S
O403        C413   1.265       .  A
O404        C414   1.265       .  A
O405        V410   1.892   1_556  S
O405        C414   1.263       .  A
O406        C413   1.263       .  A
O407        V410   1.897   1_556  S
O407        C412   1.264       .  A
O408        C411   1.264       .  A
C411        C444   1.470       .  S
C412        C417   1.475       .  S
C413        C437   1.472       .  S
C414        C426   1.472       .  S
C415        C790   1.483       .  S
C415        C416   1.407       .  A
C415        C420   1.407       .  A
C416        C417   1.404       .  A
C416        H421   1.083       .  S
C417        C418   1.401       .  A
C418        C419   1.401       .  A
C418        H422   1.084       .  S
C419        C462   1.472       .  S
C419        C420   1.402       .  A
C420        H423   1.083       .  S
C424        C772   1.484       .  S
C424        C425   1.408       .  A
C424        C429   1.407       .  A
C425        C426   1.404       .  A
C425        H430   1.083       .  S
C426        C427   1.401       .  A
C427        C428   1.400       .  A
C427        H431   1.084       .  S
C428        C478   1.473       .  S
C428        C429   1.402       .  A
C429        H432   1.083       .  S
C433        C754   1.484       .  S
C433        C434   1.408       .  A
C433        C438   1.406       .  A
C434        C435   1.404       .  A
C434        H439   1.083       .  S
C435        C464   1.474       .  S
C435        C436   1.401       .  A
C436        C437   1.401       .  A
C436        H440   1.084       .  S
C437        C438   1.402       .  A
C438        H441   1.082       .  S
C442        C736   1.486       .  S
C442        C443   1.406       .  A
C442        C447   1.409       .  A
C443        C444   1.401       .  A
C443        H448   1.082       .  S
C444        C445   1.399       .  A
C445        C446   1.401       .  A
C445        H449   1.084       .  S
C446        C476   1.474       .  S
C446        C447   1.405       .  A
C447        H450   1.082       .  S
O451        V459   1.892       .  S
O451        C461   1.262       .  A
O452        V459   1.892       .  S
O452        C462   1.262       .  A
O453        V459   1.898       .  S
O453        C463   1.265       .  A
O454        V459   1.898       .  S
O454        C464   1.265       .  A
O455        V460   1.901       .  S
O455        C464   1.264       .  A
O456        V460   1.903       .  S
O456        C463   1.264       .  A
O457        V460   1.904       .  S
O457        C462   1.265       .  A
O458        V460   1.902       .  S
O458        C461   1.265       .  A
V459        V460   2.088       .  T
C461        C513   1.472   1_565  S
C463        C506   1.476   1_565  S
O465        V473   1.895       .  S
O465        C475   1.263       .  A
O466        V473   1.894       .  S
O466        C476   1.264       .  A
O467        V473   1.896       .  S
O467        C477   1.264       .  A
O468        V473   1.896       .  S
O468        C478   1.264       .  A
O469        V474   1.900       .  S
O469        C478   1.264       .  A
O470        V474   1.900       .  S
O470        C477   1.264       .  A
O471        V474   1.904       .  S
O471        C476   1.265       .  A
O472        V474   1.904       .  S
O472        C475   1.265       .  A
V473        V474   2.088       .  T
C475        C495   1.473   1_565  S
C477        C522   1.473   1_565  S
O479        V487   1.893   1_556  S
O479        C489   1.263       .  A
O480        C490   1.263       .  A
O481        V487   1.895   1_556  S
O481        C491   1.264       .  A
O482        C492   1.263       .  A
O483        V488   1.901       .  S
O483        C492   1.264       .  A
O484        C491   1.265       .  A
O485        V488   1.903       .  S
O485        C490   1.265       .  A
O486        C489   1.265       .  A
C489        C504   1.469       .  S
C490        C524   1.472       .  S
C491        C497   1.475       .  S
C492        C515   1.470       .  S
C493        C718   1.490       .  S
C493        C494   1.409       .  A
C493        C498   1.410       .  A
C494        C495   1.403       .  A
C494        H499   1.081       .  S
C495        C496   1.400       .  A
C496        C497   1.401       .  A
C496        H500   1.084       .  S
C497        C498   1.404       .  A
C498        H501   1.082       .  S
C502        C700   1.484       .  S
C502        C503   1.406       .  A
C502        C507   1.409       .  A
C503        C504   1.401       .  A
C503        H508   1.083       .  S
C504        C505   1.400       .  A
C505        C506   1.401       .  A
C505        H509   1.084       .  S
C506        C507   1.406       .  A
C507        H510   1.083       .  S
C511        C685   1.481       .  S
C511        C512   1.406       .  A
C511        C516   1.406       .  A
C512        C513   1.400       .  A
C512        H517   1.083       .  S
C513        C514   1.401       .  A
C514        C515   1.401       .  A
C514        H518   1.084       .  S
C515        C516   1.404       .  A
C516        H519   1.083       .  S
C520        C664   1.483       .  S
C520        C521   1.407       .  A
C520        C525   1.407       .  A
C521        C522   1.403       .  A
C521        H526   1.083       .  S
C522        C523   1.401       .  A
C523        C524   1.401       .  A
C523        H527   1.084       .  S
C524        C525   1.402       .  A
C525        H528   1.082       .  S
O529        V537   1.892       .  S
O529        C539   1.263       .  A
O530        V537   1.892   1_655  S
O530        C540   1.263       .  A
O531        V537   1.898   1_655  S
O531        C541   1.264       .  A
O532        V537   1.897       .  S
O532        C542   1.265       .  A
O533        V538   1.901       .  S
O533        C542   1.264       .  A
O534        V538   1.901   1_655  S
O534        C541   1.264       .  A
O535        V538   1.903   1_655  S
O535        C540   1.265       .  A
O536        V538   1.901       .  S
O536        C539   1.265       .  A
V537        V538   2.088       .  T
C539        C602   1.470       .  S
C540        C634   1.472       .  S
C541        C641   1.474       .  S
C542        C573   1.474       .  S
O543        V551   1.900       .  S
O543        C553   1.264       .  A
O544        V551   1.900   1_455  S
O544        C554   1.264       .  A
O545        V551   1.902   1_455  S
O545        C555   1.265       .  A
O546        V551   1.904       .  S
O546        C556   1.265       .  A
O547        V552   1.893       .  S
O547        C556   1.263       .  A
O548        V552   1.895   1_455  S
O548        C555   1.263       .  A
O549        V552   1.895   1_455  S
O549        C554   1.264       .  A
O550        V552   1.895       .  S
O550        C553   1.264       .  A
V551        V552   2.088       .  T
C553        C625   1.472       .  S
C554        C591   1.472       .  S
C555        C584   1.473       .  S
C556        C650   1.474       .  S
O557        V565   1.900       .  S
O557        C567   1.264       .  A
O558        C568   1.264       .  A
O559        C569   1.265       .  A
O560        V565   1.901       .  S
O560        C570   1.265       .  A
O561        C570   1.262       .  A
O562        V566   1.891       .  S
O562        C569   1.263       .  A
O563        V566   1.896       .  S
O563        C568   1.264       .  A
O564        C567   1.264       .  A
C567        C582   1.474       .  S
C568        C600   1.472       .  S
C569        C593   1.471       .  S
C570        C575   1.470       .  S
C571        C775   1.485       .  S
C571        C572   1.408       .  A
C571        C576   1.406       .  A
C572        C573   1.407       .  A
C572        H577   1.083       .  S
C573        C574   1.401       .  A
C574        C575   1.400       .  A
C574        H578   1.084       .  S
C575        C576   1.400       .  A
C576        H579   1.083       .  S
C580        C721   1.490       .  S
C580        C581   1.408       .  A
C580        C585   1.409       .  A
C581        C582   1.404       .  A
C581        H586   1.081       .  S
C582        C583   1.401       .  A
C583        C584   1.401       .  A
C583        H587   1.084       .  S
C584        C585   1.403       .  A
C585        H588   1.082       .  S
C589        C667   1.484       .  S
C589        C590   1.407       .  A
C589        C594   1.408       .  A
C590        C591   1.404       .  A
C590        H595   1.083       .  S
C591        C592   1.399       .  A
C592        C593   1.400       .  A
C592        H596   1.084       .  S
C593        C594   1.402       .  A
C594        H597   1.083       .  S
C598        C739   1.486       .  S
C598        C599   1.408       .  A
C598        C603   1.408       .  A
C599        C600   1.405       .  A
C599        H604   1.082       .  S
C600        C601   1.399       .  A
C601        C602   1.399       .  A
C601        H605   1.084       .  S
C602        C603   1.401       .  A
C603        H606   1.082       .  S
O607        V615   1.892       .  S
O607        C617   1.263       .  A
O608        C618   1.263       .  A
O609        C619   1.264       .  A
O610        V615   1.894       .  S
O610        C620   1.263       .  A
O611        C620   1.264       .  A
O612        V616   1.903       .  S
O612        C619   1.265       .  A
O613        V616   1.900       .  S
O613        C618   1.265       .  A
O614        C617   1.266       .  A
C617        C643   1.473       .  S
C618        C623   1.469       .  S
C619        C632   1.474       .  S
C620        C652   1.470       .  S
C621        C703   1.481       .  S
C621        C622   1.405       .  A
C621        C626   1.407       .  A
C622        C623   1.401       .  A
C622        H627   1.083       .  S
C623        C624   1.400       .  A
C624        C625   1.401       .  A
C624        H628   1.084       .  S
C625        C626   1.405       .  A
C626        H629   1.083       .  S
C630        C793   1.483       .  S
C630        C631   1.407       .  A
C630        C635   1.407       .  A
C631        C632   1.404       .  A
C631        H636   1.083       .  S
C632        C633   1.401       .  A
C633        C634   1.401       .  A
C633        H637   1.084       .  S
C634        C635   1.401       .  A
C635        H638   1.083       .  S
C639        C757   1.484       .  S
C639        C640   1.407       .  A
C639        C644   1.407       .  A
C640        C641   1.404       .  A
C640        H645   1.083       .  S
C641        C642   1.401       .  A
C642        C643   1.402       .  A
C642        H646   1.084       .  S
C643        C644   1.402       .  A
C644        H647   1.083       .  S
C648        C682   1.481       .  S
C648        C649   1.407       .  A
C648        C653   1.406       .  A
C649        C650   1.402       .  A
C649        H654   1.082       .  S
C650        C651   1.401       .  A
C651        C652   1.400       .  A
C651        H655   1.084       .  S
C652        C653   1.402       .  A
C653        H656   1.083       .  S
C657        C662   1.383       .  A
C657        C658   1.402       .  A
C657        N663   1.341       .  A
C658        C659   1.401       .  A
C658        H669   1.082       .  S
C659        C668   1.375       .  A
C659        C660   1.383       .  A
C660        C661   1.404       .  A
C660        N666   1.343       .  A
C661        C662   1.403       .  A
C661        H670   1.082       .  S
C662        C665   1.378       .  A
N663        C664   1.357       .  A
N663        H673   1.044       .  S
C664        C665   1.399       .  A
C665        H671   1.082       .  S
N666        C667   1.358       .  A
N666        H674   1.044       .  S
C667        C668   1.398       .  A
C668        H672   1.082       .  S
C675        C680   1.384       .  A
C675        C676   1.399       .  A
C675        N681   1.340       .  A
C676        C677   1.398       .  A
C676        H687   1.083       .  S
C677        C686   1.371       .  A
C677        C678   1.383       .  A
C678        C679   1.405       .  A
C678        N684   1.344       .  A
C679        C680   1.404       .  A
C679        H688   1.083       .  S
C680        C683   1.378       .  A
N681        C682   1.356       .  A
N681        H691   1.045       .  S
C682        C683   1.400       .  A
C683        H689   1.082       .  S
N684        C685   1.359       .  A
N684        H692   1.045       .  S
C685        C686   1.396       .  A
C686        H690   1.082       .  S
C693        C698   1.383       .  A
C693        C694   1.404       .  A
C693        N699   1.344       .  A
C694        C695   1.403       .  A
C694        H705   1.082       .  S
C695        C704   1.378       .  A
C695        C696   1.383       .  A
C696        C697   1.402       .  A
C696        N702   1.341       .  A
C697        C698   1.401       .  A
C697        H706   1.082       .  S
C698        C701   1.375       .  A
N699        C700   1.358       .  A
N699        H709   1.045       .  S
C700        C701   1.398       .  A
C701        H707   1.082       .  S
N702        C703   1.357       .  A
N702        H710   1.045       .  S
C703        C704   1.398       .  A
C704        H708   1.082       .  S
C711        C716   1.382       .  A
C711        C712   1.403       .  A
C711        N717   1.343       .  A
C712        C713   1.402       .  A
C712        H723   1.082       .  S
C713        C722   1.376       .  A
C713        C714   1.382       .  A
C714        C715   1.404       .  A
C714        N720   1.344       .  A
C715        C716   1.403       .  A
C715        H724   1.082       .  S
C716        C719   1.377       .  A
N717        C718   1.359       .  A
N717        H727   1.044       .  S
C718        C719   1.401       .  A
C719        H725   1.081       .  S
N720        C721   1.360       .  A
N720        H728   1.044       .  S
C721        C722   1.400       .  A
C722        H726   1.081       .  S
C729        C734   1.383       .  A
C729        C730   1.402       .  A
C729        N735   1.342       .  A
C730        C731   1.401       .  A
C730        H741   1.082       .  S
C731        C740   1.375       .  A
C731        C732   1.383       .  A
C732        C733   1.403       .  A
C732        N738   1.343       .  A
C733        C734   1.403       .  A
C733        H742   1.082       .  S
C734        C737   1.376       .  A
N735        C736   1.358       .  A
N735        H745   1.044       .  S
C736        C737   1.400       .  A
C737        H743   1.082       .  S
N738        C739   1.359       .  A
N738        H746   1.044       .  S
C739        C740   1.399       .  A
C740        H744   1.082       .  S
C747        C752   1.383       .  A
C747        C748   1.402       .  A
C747        N753   1.341       .  A
C748        C749   1.401       .  A
C748        H759   1.082       .  S
C749        C758   1.374       .  A
C749        C750   1.383       .  A
C750        C751   1.404       .  A
C750        N756   1.343       .  A
C751        C752   1.403       .  A
C751        H760   1.082       .  S
C752        C755   1.377       .  A
N753        C754   1.357       .  A
N753        H763   1.045       .  S
C754        C755   1.399       .  A
C755        H761   1.082       .  S
N756        C757   1.358       .  A
N756        H764   1.045       .  S
C757        C758   1.398       .  A
C758        H762   1.082       .  S
C765        C770   1.383       .  A
C765        C766   1.402       .  A
C765        N771   1.343       .  A
C766        C767   1.401       .  A
C766        H777   1.082       .  S
C767        C776   1.374       .  A
C767        C768   1.383       .  A
C768        C769   1.404       .  A
C768        N774   1.345       .  A
C769        C770   1.404       .  A
C769        H778   1.082       .  S
C770        C773   1.376       .  A
N771        C772   1.357       .  A
N771        H781   1.045       .  S
C772        C773   1.399       .  A
C773        H779   1.082       .  S
N774        C775   1.358       .  A
N774        H782   1.045       .  S
C775        C776   1.398       .  A
C776        H780   1.082       .  S
C783        C788   1.383       .  A
C783        C784   1.402       .  A
C783        N789   1.341       .  A
C784        C785   1.401       .  A
C784        H795   1.082       .  S
C785        C794   1.375       .  A
C785        C786   1.383       .  A
C786        C787   1.404       .  A
C786        N792   1.343       .  A
C787        C788   1.403       .  A
C787        H796   1.082       .  S
C788        C791   1.377       .  A
N789        C790   1.357       .  A
N789        H799   1.044       .  S
C790        C791   1.399       .  A
C791        H797   1.082       .  S
N792        C793   1.358       .  A
N792        H800   1.044       .  S
C793        C794   1.397       .  A
C794        H798   1.082       .  S
