geometry optimzed in LAMMPS
_audit_creation_date              2020-12-01 
_audit_creation_method            'lammps2cif' 
_symmetry_space_group_name_H-M    'P1' 
_symmetry_Int_Tables_number       1 
_symmetry_cell_setting            triclinic 
loop_ 
_symmetry_equiv_pos_as_xyz 
  x,y,z 
_cell_length_a                    46.41921833 
_cell_length_b                    46.3351247152435 
_cell_length_c                    30.336050532828587 
_cell_angle_alpha                 91.62893662100264 
_cell_angle_beta                  91.93518023069156 
_cell_angle_gamma                 88.23753256849072 
loop_ 
_atom_site_label 
_atom_site_type_symbol 
_atom_site_fract_x 
_atom_site_fract_y 
_atom_site_fract_z 
_atom_site_charge 
O1          O  0.24731712  0.44214354  0.91024490    -0.73800
O2          O  0.24709828  0.44397848  0.03660701    -0.73800
O3          O  0.28879598  0.44275599  0.97665361    -0.73800
O4          O  0.20583971  0.44304463  0.97135812    -0.73900
O5          O  0.20737812  0.39519589  0.97079135    -0.73800
O6          O  0.29023461  0.39479022  0.97496626    -0.73800
O7          O  0.24853412  0.39583262  0.03590843    -0.73800
O8          O  0.24878299  0.39401654  0.90949315    -0.73800
Ni9        Ni  0.24726845  0.44468542  0.97356476     1.25400
Ni10       Ni  0.24881154  0.39326494  0.97270070     1.25400
C11         C  0.24753866  0.41783822  0.88903553     0.88400
C12         C  0.24746300  0.42016058  0.05698248     0.88400
C13         C  0.30336512  0.41876770  0.97739879     0.88400
C14         C  0.19267553  0.41908068  0.97057946     0.88600
O15         O  0.25003165  0.44194519  0.41121085    -0.73800
O16         O  0.24769694  0.44091483  0.53699086    -0.73800
O17         O  0.28996824  0.44280288  0.47892615    -0.73800
O18         O  0.20779409  0.43977608  0.47046348    -0.73900
O19         O  0.20997245  0.39191651  0.46782954    -0.73800
O20         O  0.29277488  0.39488554  0.47448464    -0.73800
O21         O  0.25066278  0.39284899  0.53453292    -0.73800
O22         O  0.25236188  0.39384830  0.40812206    -0.73800
Ni23       Ni  0.24873471  0.44301405  0.47432787     1.25400
Ni24       Ni  0.25155228  0.39162103  0.47109856     1.25400
C25         C  0.25178243  0.41810672  0.38889791     0.88400
C26         C  0.24919382  0.41684927  0.55660532     0.88400
C27         C  0.30511869  0.41927146  0.47886720     0.88400
C28         C  0.19500085  0.41563746  0.46792974     0.88600
O29         O  0.38431838  0.21659036  0.99782790    -0.73800
O30         O  0.38616457  0.29921306  0.99844664    -0.73800
O31         O  0.38670336  0.25672477  0.93551186    -0.73800
O32         O  0.38411087  0.25889539  0.06198180    -0.73900
O33         O  0.43204926  0.25579423  0.06619832    -0.73800
O34         O  0.43457212  0.25454334  0.94059029    -0.73800
O35         O  0.43390096  0.29668507  0.00501445    -0.73800
O36         O  0.43223972  0.21384112  0.00261075    -0.73800
Ni37       Ni  0.38359904  0.25795615  0.99836792     1.25400
Ni38       Ni  0.43486971  0.25515632  0.00369671     1.25400
C39         C  0.40787345  0.20147893  0.00014999     0.88400
C40         C  0.41036081  0.31180794  0.00170635     0.88400
C41         C  0.41118704  0.25517403  0.91709446     0.88400
C42         C  0.40783944  0.25786745  0.08496631     0.88600
O43         O  0.43240978  0.25347478  0.56516303    -0.73800
O44         O  0.43063327  0.25882250  0.43904316    -0.73800
O45         O  0.43254623  0.29719957  0.50853043    -0.73800
O46         O  0.43100053  0.21551804  0.49661369    -0.73900
O47         O  0.38322601  0.21684308  0.49696818    -0.73800
O48         O  0.38475395  0.29999696  0.50448358    -0.73800
O49         O  0.38266391  0.25973311  0.43827214    -0.73800
O50         O  0.38436903  0.25705259  0.56408873    -0.73800
Ni51       Ni  0.43330917  0.25621695  0.50232129     1.25400
Ni52       Ni  0.38199317  0.25851460  0.50103200     1.25400
C53         C  0.40857727  0.25431124  0.58523610     0.88400
C54         C  0.40624685  0.25984830  0.41778741     0.88400
C55         C  0.40913690  0.31241972  0.50767613     0.88400
C56         C  0.40718770  0.20237958  0.49439473     0.88600
O57         O  0.24746429  0.07696734  0.08892757    -0.73800
O58         O  0.24985310  0.07204336  0.96314503    -0.73800
O59         O  0.28943679  0.07517528  0.02962400    -0.73800
O60         O  0.20749858  0.07425418  0.02178301    -0.73900
O61         O  0.20548664  0.12214495  0.02268078    -0.73800
O62         O  0.28837433  0.12288117  0.02602581    -0.73800
O63         O  0.24710789  0.11992448  0.96038728    -0.73800
O64         O  0.24729421  0.12499565  0.08728358    -0.73800
Ni65       Ni  0.24857542  0.07298507  0.02598146     1.25400
Ni66       Ni  0.24690704  0.12426922  0.02388051     1.25400
C67         C  0.24745255  0.10164115  0.10896209     0.88400
C68         C  0.24936528  0.09502377  0.94084759     0.88400
C69         C  0.30273669  0.09892843  0.02946169     0.88400
C70         C  0.19268228  0.09796181  0.02192761     0.88600
O71         O  0.25359389  0.06743421  0.58349155    -0.73800
O72         O  0.25462405  0.07483586  0.45802079    -0.73800
O73         O  0.29551520  0.07048536  0.52269982    -0.73800
O74         O  0.21266999  0.07194612  0.51721587    -0.73900
O75         O  0.21171625  0.11959598  0.52734574    -0.73800
O76         O  0.29427316  0.11826933  0.53185970    -0.73800
O77         O  0.25329985  0.12271691  0.46622805    -0.73800
O78         O  0.25310818  0.11538940  0.59199248    -0.73800
Ni79       Ni  0.25407629  0.06946478  0.52025012     1.25400
Ni80       Ni  0.25303154  0.12068723  0.52966195     1.25400
C81         C  0.25330431  0.09023744  0.60840260     0.88400
C82         C  0.25472795  0.09987567  0.44136031     0.88400
C83         C  0.30862827  0.09442018  0.52651455     0.88400
C84         C  0.19836413  0.09594007  0.52126231     0.88600
O85         O  0.06419731  0.26137416  0.08234877    -0.73800
O86         O  0.06492099  0.26264208  0.95657461    -0.73800
O87         O  0.06272446  0.22064491  0.01632871    -0.73800
O88         O  0.06685126  0.30304598  0.02104586    -0.73900
O89         O  0.11470355  0.29973896  0.02491072    -0.73800
O90         O  0.11047621  0.21696209  0.02101766    -0.73800
O91         O  0.11289068  0.25879622  0.95927360    -0.73800
O92         O  0.11207826  0.25801194  0.08600036    -0.73800
Ni93       Ni  0.06302353  0.26202788  0.01915448     1.25400
Ni94       Ni  0.11428400  0.25819660  0.02289453     1.25400
C95         C  0.08782560  0.25917424  0.10511148     0.88400
C96         C  0.08893930  0.26179108  0.93721368     0.88400
C97         C  0.08590324  0.20496858  0.01821173     0.88400
C98         C  0.09134233  0.31516218  0.02228569     0.88600
O99         O  0.06710947  0.25902977  0.45639280    -0.73800
O100        O  0.06574969  0.26386856  0.58240017    -0.73800
O101        O  0.06637916  0.30259481  0.51673490    -0.73800
O102        O  0.06691611  0.21965246  0.52043304    -0.73900
O103        O  0.11471782  0.21859704  0.52613970    -0.73800
O104        O  0.11431409  0.30110333  0.52097226    -0.73800
O105        O  0.11370501  0.26299947  0.58629940    -0.73800
O106        O  0.11519154  0.25705392  0.46012447    -0.73800
Ni107      Ni  0.06481736  0.26125414  0.51908777     1.25400
Ni108      Ni  0.11616917  0.25985177  0.52354354     1.25400
C109        C  0.09135154  0.25748239  0.43753256     0.88400
C110        C  0.08948590  0.26492147  0.60519723     0.88400
C111        C  0.09042241  0.31553304  0.51703981     0.88400
C112        C  0.09095640  0.20522985  0.52307169     0.88600
N113        N  0.37905758  0.38690325  0.98982912    -0.35900
N114        N  0.37773052  0.44900326  0.98961609    -0.56500
N115        N  0.44088065  0.44880929  0.00440786    -0.35900
N116        N  0.44201637  0.38609205  0.00458814    -0.56500
C117        C  0.35117257  0.39405009  0.99828744     0.27600
C118        C  0.38521198  0.36087320  0.00772752     0.27700
C119        C  0.43445063  0.47516656  0.98828647     0.27600
C120        C  0.46816861  0.44211799  0.99278228     0.27600
C121        C  0.35097063  0.44379966  0.97273603     0.36300
C122        C  0.38298509  0.47673891  0.98100998     0.36300
C123        C  0.43714297  0.35812930  0.99329769     0.36300
C124        C  0.47022865  0.39030645  0.99765846     0.36300
C125        C  0.33983659  0.37280530  0.02329777    -0.21200
C126        C  0.36128836  0.35194234  0.02931910    -0.21200
C127        C  0.45688377  0.48444322  0.96388552    -0.21200
C128        C  0.47821975  0.46346302  0.96658042    -0.21200
C129        C  0.33998869  0.46789859  0.95094397    -0.22300
C130        C  0.36030219  0.48876798  0.95624780    -0.22300
C131        C  0.46206094  0.34510904  0.97700667    -0.22300
C132        C  0.48276986  0.36553589  0.97915403    -0.22300
C133        C  0.33579474  0.41868182  0.98180075    -0.17600
C134        C  0.41101329  0.34424923  0.00102032    -0.17600
C135        C  0.48406027  0.41696893  0.00467624    -0.17600
C136        C  0.40850248  0.49081987  0.99450804    -0.17600
H137        H  0.31852155  0.37242333  0.03657336     0.15300
H138        H  0.35938295  0.33255580  0.04791212     0.15300
H139        H  0.45702079  0.00688379  0.94480687     0.15300
H140        H  0.99977750  0.46737163  0.94093828     0.15300
H141        H  0.31965111  0.47043669  0.93285118     0.13600
H142        H  0.35678276  0.01074568  0.94203388     0.13600
H143        H  0.46533550  0.32345627  0.96389513     0.13600
H144        H  0.00460961  0.36350304  0.95137151     0.13600
H145        H  0.39217526  0.39762070  0.96873115     0.26800
H146        H  0.42837583  0.43747357  0.02560940     0.26800
N147        N  0.38023473  0.38802645  0.49711926    -0.35900
N148        N  0.37968701  0.44958251  0.49197629    -0.56500
N149        N  0.45372156  0.45898677  0.52284363    -0.35900
N150        N  0.44337679  0.38473944  0.52294199    -0.56500
C151        C  0.35211484  0.39546102  0.50313040     0.27600
C152        C  0.38519030  0.36186404  0.51520539     0.27700
C153        C  0.43624042  0.47011390  0.49054648     0.27600
C154        C  0.47002002  0.43785365  0.50308985     0.27600
C155        C  0.35235003  0.44545291  0.47721391     0.36300
C156        C  0.38556692  0.47737652  0.48473468     0.36300
C157        C  0.43755081  0.35809327  0.50609962     0.36300
C158        C  0.47196586  0.38837862  0.51795953     0.36300
C159        C  0.33962347  0.37436382  0.52719454    -0.21200
C160        C  0.36041771  0.35316038  0.53459749    -0.21200
C161        C  0.44088726  0.45555108  0.45078785    -0.21200
C162        C  0.46269035  0.43566332  0.45848043    -0.21200
C163        C  0.34120794  0.47073363  0.45859230    -0.22300
C164        C  0.36223660  0.49105795  0.46382156    -0.22300
C165        C  0.46218863  0.34551297  0.48820077    -0.22300
C166        C  0.48378474  0.36475536  0.49521599    -0.22300
C167        C  0.33727657  0.41999247  0.48521967    -0.17600
C168        C  0.41064482  0.34476418  0.50979232    -0.17600
C169        C  0.48523891  0.41536369  0.52479976    -0.17600
C170        C  0.41250990  0.48919812  0.49662142    -0.17600
H171        H  0.31787363  0.37423068  0.53888536     0.15300
H172        H  0.35752289  0.33371093  0.55263086     0.15300
H173        H  0.41652841  0.96337893  0.40071344     0.15300
H174        H  0.95698817  0.42475911  0.40936253     0.15300
H175        H  0.32032121  0.47454285  0.44269205     0.13600
H176        H  0.35809070  0.01419840  0.44849405     0.13600
H177        H  0.46433640  0.32539816  0.46952085     0.13600
H178        H  0.00344098  0.36396509  0.45759197     0.13600
H179        H  0.39443506  0.39841170  0.47729980     0.26800
H180        H  0.45246279  0.46349397  0.55666173     0.26800
N181        N  0.37559551  0.12824471  0.01086064    -0.35900
N182        N  0.37656819  0.06596781  0.01356236    -0.56500
N183        N  0.43940678  0.06336081  0.99823791    -0.35900
N184        N  0.43767101  0.12597012  0.00233206    -0.56500
C185        C  0.35000111  0.12441706  0.02968304     0.27600
C186        C  0.38257411  0.15617495  0.01833283     0.27700
C187        C  0.43304822  0.03715150  0.01262870     0.27600
C188        C  0.46595235  0.06985788  0.01520445     0.27600
C189        C  0.35012528  0.07104144  0.02994339     0.36300
C190        C  0.38185129  0.03720960  0.01612186     0.36300
C191        C  0.43058971  0.15221662  0.98631528     0.36300
C192        C  0.46374978  0.11819942  0.98658203     0.36300
C193        C  0.34081725  0.15010724  0.04995976    -0.21200
C194        C  0.36142804  0.17006260  0.04314627    -0.21200
C195        C  0.45500500  0.02700418  0.04049283    -0.21200
C196        C  0.47578170  0.04761028  0.04231476    -0.21200
C197        C  0.33997443  0.04572558  0.04647250    -0.22300
C198        C  0.36007147  0.02440783  0.03776887    -0.22300
C199        C  0.45179381  0.16078435  0.95875260    -0.22300
C200        C  0.47269795  0.13899677  0.95849563    -0.22300
C201        C  0.33510374  0.09817527  0.02997629    -0.17600
C202        C  0.40682750  0.16929540  0.00093821    -0.17600
C203        C  0.48071234  0.09510140  0.00428006    -0.17600
C204        C  0.40723673  0.02285589  0.00216764    -0.17600
H205        H  0.32195472  0.15388155  0.06955127     0.15300
H206        H  0.36097430  0.19203930  0.05613865     0.15300
H207        H  0.45564307  0.00710999  0.05841214     0.15300
H208        H  0.99575410  0.04545990  0.06680858     0.15300
H209        H  0.32099925  0.04276644  0.06531046     0.13600
H210        H  0.35927376  0.00228559  0.04805363     0.13600
H211        H  0.45244080  0.18078361  0.94129421     0.13600
H212        H  0.99475383  0.13708905  0.94498650     0.13600
H213        H  0.38627319  0.11356633  0.99001904     0.26800
H214        H  0.42695011  0.07502081  0.97517831     0.26800
N215        N  0.38033133  0.12796915  0.51129563    -0.35900
N216        N  0.38403018  0.06521857  0.51038250    -0.56500
N217        N  0.44652275  0.06498717  0.50702172    -0.35900
N218        N  0.44213584  0.12875676  0.50161097    -0.56500
C219        C  0.35244995  0.12052430  0.50575911     0.27600
C220        C  0.38256806  0.15449789  0.49424659     0.27700
C221        C  0.44004987  0.03914439  0.48731529     0.27600
C222        C  0.47220859  0.07274758  0.49223700     0.27600
C223        C  0.35837141  0.07019435  0.52952889     0.36300
C224        C  0.39246231  0.03767841  0.51901640     0.36300
C225        C  0.43527693  0.15545374  0.48701651     0.36300
C226        C  0.47042240  0.12413930  0.49376944     0.36300
C227        C  0.33709394  0.14226034  0.48374375    -0.21200
C228        C  0.35599383  0.16375012  0.47696946    -0.21200
C229        C  0.46170347  0.03122491  0.45830862    -0.21200
C230        C  0.48197266  0.05235145  0.46165953    -0.21200
C231        C  0.35089798  0.04597739  0.55189809    -0.22300
C232        C  0.37258270  0.02544128  0.54544966    -0.22300
C233        C  0.45864995  0.16652446  0.46640513    -0.22300
C234        C  0.48078647  0.14658489  0.47041240    -0.22300
C235        C  0.34063310  0.09513870  0.52194288    -0.17600
C236        C  0.40821484  0.16996975  0.49191468    -0.17600
C237        C  0.48620164  0.09868506  0.50413394    -0.17600
C238        C  0.41549736  0.02295484  0.49723702    -0.17600
H239        H  0.31483710  0.14244599  0.47201820     0.15300
H240        H  0.35091821  0.18308810  0.45877893     0.15300
H241        H  0.46289430  0.01296660  0.43557859     0.15300
H242        H  0.00163364  0.05287647  0.43777769     0.15300
H243        H  0.33169185  0.04310437  0.57031978     0.13600
H244        H  0.37314581  0.00367642  0.55754480     0.13600
H245        H  0.45948826  0.18618956  0.44818547     0.13600
H246        H  0.00330482  0.14983424  0.45065046     0.13600
H247        H  0.39615959  0.11671052  0.52958642     0.26800
H248        H  0.43527112  0.07596449  0.53189946     0.26800
N249        N  0.11667513  0.12914150  0.02220097    -0.35900
N250        N  0.05380117  0.13069743  0.01701153    -0.56500
N251        N  0.04351426  0.05473304  0.00861384    -0.35900
N252        N  0.11898503  0.06626616  0.02024331    -0.56500
C253        C  0.10962155  0.15578337  0.00686369     0.27600
C254        C  0.14371703  0.12210776  0.00887891     0.27700
C255        C  0.03125818  0.07607488  0.03388383     0.27600
C256        C  0.06468598  0.04256841  0.03450081     0.27600
C257        C  0.05834164  0.15889783  0.02642847     0.36300
C258        C  0.02566865  0.12624517  0.02415552     0.36300
C259        C  0.14666215  0.07137113  0.03196566     0.36300
C260        C  0.11488751  0.03805807  0.02748467     0.36300
C261        C  0.13190316  0.16511228  0.98200066    -0.21200
C262        C  0.15331900  0.14396327  0.98326151    -0.21200
C263        C  0.04429146  0.07705241  0.07561709    -0.21200
C264        C  0.06532547  0.05588781  0.07605667    -0.21200
C265        C  0.03298617  0.17205747  0.04141352    -0.22300
C266        C  0.01242444  0.15131217  0.04021965    -0.22300
C267        C  0.15961699  0.04638320  0.04923266    -0.22300
C268        C  0.13946528  0.02521704  0.04593892    -0.22300
C269        C  0.08449076  0.17255663  0.01761539    -0.17600
C270        C  0.16036527  0.09725586  0.02176102    -0.17600
C271        C  0.08800109  0.02523606  0.01971921    -0.17600
C272        C  0.01327238  0.09878506  0.01864556    -0.17600
H273        H  0.13264338  0.18494725  0.96415023     0.15300
H274        H  0.17346087  0.14459438  0.96645173     0.15300
H275        H  0.54094486  0.09507248  0.09567358     0.15300
H276        H  0.08089146  0.05193294  0.10275504     0.15300
H277        H  0.02910842  0.19407342  0.05262209     0.13600
H278        H  0.49088804  0.15363148  0.04769043     0.13600
H279        H  0.18110996  0.04325526  0.06333641     0.13600
H280        H  0.14226512  0.00327617  0.05700303     0.13600
H281        H  0.10502139  0.11783615  0.04457092     0.26800
H282        H  0.04003263  0.05109792  0.97474153     0.26800
N283        N  0.12318397  0.12906310  0.52133823    -0.35900
N284        N  0.06073354  0.13088440  0.51197589    -0.56500
N285        N  0.06090050  0.06768122  0.49908281    -0.35900
N286        N  0.12374642  0.06639161  0.50923809    -0.56500
C287        C  0.11711023  0.15687315  0.51062537     0.27600
C288        C  0.15049016  0.12248245  0.50909714     0.27700
C289        C  0.03400740  0.07407914  0.51279458     0.27600
C290        C  0.06700641  0.04014071  0.51058666     0.27600
C291        C  0.06580497  0.15778044  0.52854798     0.36300
C292        C  0.03274881  0.12588277  0.51913002     0.36300
C293        C  0.15100149  0.07066031  0.52480665     0.36300
C294        C  0.11872184  0.03814064  0.51460672     0.36300
C295        C  0.14065183  0.16770684  0.49020461    -0.21200
C296        C  0.16155187  0.14605512  0.48902030    -0.21200
C297        C  0.02384771  0.05126419  0.53576023    -0.21200
C298        C  0.04473781  0.02976988  0.53435143    -0.21200
C299        C  0.04136186  0.16915976  0.54852599    -0.22300
C300        C  0.02053406  0.14885395  0.54287685    -0.22300
C301        C  0.16258608  0.04534147  0.54237432    -0.22300
C302        C  0.14207266  0.02485904  0.53618259    -0.22300
C303        C  0.09142014  0.17266909  0.52158703    -0.17600
C304        C  0.16595721  0.09639366  0.51883892    -0.17600
C305        C  0.09276864  0.02458899  0.50169061    -0.17600
C306        C  0.01860394  0.10026579  0.50571466    -0.17600
H307        H  0.14285726  0.18884492  0.47697291     0.15300
H308        H  0.18237583  0.14764122  0.47446590     0.15300
H309        H  0.50399874  0.04838060  0.55742798     0.15300
H310        H  0.04395581  0.00916345  0.55011335     0.15300
H311        H  0.03871892  0.18966188  0.56606400     0.13600
H312        H  0.50164189  0.15124320  0.55962639     0.13600
H313        H  0.18342877  0.04167976  0.55843990     0.13600
H314        H  0.14399349  0.00281362  0.54701781     0.13600
H315        H  0.11055337  0.11627429  0.54030130     0.26800
H316        H  0.07324379  0.08039048  0.47954969     0.26800
N317        N  0.12186057  0.38869100  0.00109168    -0.35900
N318        N  0.11792775  0.45058453  0.98890490    -0.56500
N319        N  0.05563975  0.45197937  0.99352408    -0.35900
N320        N  0.05978372  0.38864616  0.00569047    -0.56500
C321        C  0.14653293  0.39229012  0.97934935     0.27600
C322        C  0.11621052  0.36007934  0.99919423     0.27700
C323        C  0.06236940  0.47779692  0.01282057     0.27600
C324        C  0.02968344  0.44492588  0.00796804     0.27600
C325        C  0.14400020  0.44556075  0.97109200     0.36300
C326        C  0.11029626  0.47855623  0.98161713     0.36300
C327        C  0.06706641  0.36416281  0.02705698     0.36300
C328        C  0.03174057  0.39437542  0.01374700     0.36300
C329        C  0.15625085  0.36558569  0.96288043    -0.21200
C330        C  0.13727936  0.34539423  0.97539303    -0.21200
C331        C  0.04059169  0.48631948  0.04134980    -0.21200
C332        C  0.01989137  0.46567645  0.03786262    -0.21200
C333        C  0.15220992  0.47015915  0.95021626    -0.22300
C334        C  0.13077698  0.49086141  0.95648023    -0.22300
C335        C  0.04405907  0.35561717  0.05121515    -0.22300
C336        C  0.02160423  0.37478445  0.04262297    -0.22300
C337        C  0.16020736  0.41899907  0.97324415    -0.17600
C338        C  0.09228128  0.34735085  0.01839690    -0.17600
C339        C  0.01616016  0.41865105  0.99808147    -0.17600
C340        C  0.08716846  0.49351071  0.00289951    -0.17600
H341        H  0.17410848  0.36097424  0.94157189     0.15300
H342        H  0.13836641  0.32275650  0.96578677     0.15300
H343        H  0.03870200  0.00394976  0.06956690     0.15300
H344        H  0.50120336  0.46725793  0.06658443     0.15300
H345        H  0.17114033  0.47294423  0.93119652     0.13600
H346        H  0.12887479  0.01351122  0.94954273     0.13600
H347        H  0.04330004  0.33730692  0.07244727     0.13600
H348        H  0.50476472  0.37274850  0.07071531     0.13600
H349        H  0.11067126  0.40434702  0.01960680     0.26800
H350        H  0.06698484  0.44036049  0.96938506     0.26800
N351        N  0.12220476  0.38740519  0.49416351    -0.35900
N352        N  0.05928577  0.39035520  0.50363558    -0.56500
N353        N  0.05831799  0.45245538  0.50208140    -0.35900
N354        N  0.12120018  0.44843954  0.48319759    -0.56500
C355        C  0.11500233  0.35930892  0.49114564     0.27600
C356        C  0.14773790  0.38979788  0.47410663     0.27700
C357        C  0.03132164  0.44627192  0.48652149     0.27600
C358        C  0.06495630  0.47827890  0.48643190     0.27600
C359        C  0.06651336  0.36501998  0.52271921     0.36300
C360        C  0.03270926  0.39841418  0.51752850     0.36300
C361        C  0.14723860  0.44267739  0.46591427     0.36300
C362        C  0.11578387  0.47693554  0.47821144     0.36300
C363        C  0.13593162  0.34378921  0.46794454    -0.21200
C364        C  0.15662144  0.36290007  0.45767167    -0.21200
C365        C  0.02151108  0.46837578  0.45909532    -0.21200
C366        C  0.04267267  0.48857805  0.45939988    -0.21200
C367        C  0.04479051  0.35743227  0.55015139    -0.22300
C368        C  0.02343029  0.37865947  0.54697594    -0.22300
C369        C  0.15694763  0.46714217  0.44626804    -0.22300
C370        C  0.13695134  0.48880635  0.45400388    -0.22300
C371        C  0.09082807  0.34746872  0.51108611    -0.17600
C372        C  0.16253336  0.41581967  0.46871382    -0.17600
C373        C  0.09141666  0.49193670  0.49446499    -0.17600
C374        C  0.01608459  0.42156353  0.49900469    -0.17600
H375        H  0.13613072  0.32119413  0.45799667     0.15300
H376        H  0.17513790  0.35761771  0.43798881     0.15300
H377        H  0.50266240  0.46774853  0.57856498     0.15300
H378        H  0.04349465  0.00762560  0.43622298     0.15300
H379        H  0.04412742  0.33845446  0.57001131     0.13600
H380        H  0.51087833  0.36935147  0.58547150     0.13600
H381        H  0.17587591  0.46921436  0.42691538     0.13600
H382        H  0.13952522  0.01118955  0.44130394     0.13600
H383        H  0.11158449  0.40325489  0.51303178     0.26800
H384        H  0.07099838  0.44098395  0.52507175     0.26800
C385        C  0.10836964  0.28207984  0.72647731    -0.11200
C386        C  0.08678126  0.26741915  0.74696079     0.11400
C387        C  0.06432534  0.25482154  0.72105684    -0.03000
C388        C  0.06596066  0.25474909  0.67486228    -0.05700
C389        C  0.08872623  0.26763605  0.65405953    -0.16500
C390        C  0.10962260  0.28282770  0.68025674     0.02400
C391        C  0.08821993  0.26592839  0.79576754     0.12300
C392        C  0.03876225  0.24163363  0.74212124     0.63000
H393        H  0.04958610  0.24413456  0.65457595     0.12400
C394        C  0.13262939  0.30052148  0.66010676     0.55100
H395        H  0.12458938  0.29259043  0.74723646     0.08200
C396        C  0.10581654  0.24501060  0.81785595    -0.05600
C397        C  0.10574943  0.24457378  0.86423009    -0.06400
C398        C  0.08880197  0.26437398  0.88869690    -0.16000
C399        C  0.07224708  0.28620626  0.86651876    -0.01500
C400        C  0.07232074  0.28651918  0.82019859    -0.09100
C401        C  0.12450228  0.22328269  0.79244691     0.65200
H402        H  0.11861478  0.22843325  0.88178852     0.10600
C403        C  0.05538771  0.30975062  0.89140431     0.63600
H404        H  0.05975250  0.30278975  0.80245331     0.08000
F405        F  0.15302760  0.28242276  0.64061865    -0.19500
F406        F  0.14676396  0.31765526  0.69157711    -0.15700
F407        F  0.12010335  0.31858867  0.62886140    -0.19200
F408        F  0.02409785  0.26257580  0.76665837    -0.22600
F409        F  0.04816012  0.21966795  0.76944674    -0.24100
F410        F  0.01951746  0.23028503  0.71084443    -0.18000
F411        F  0.07312711  0.32262115  0.92324025    -0.20500
F412        F  0.03215460  0.29815017  0.91119964    -0.21700
F413        F  0.04483769  0.33114342  0.86372239    -0.18900
F414        F  0.13949495  0.20449215  0.82021579    -0.19000
F415        F  0.14440505  0.23758865  0.76893639    -0.22800
F416        F  0.10749404  0.20712263  0.76343049    -0.24400
C417        C  0.06636529  0.24671151  0.22371693    -0.11200
C418        C  0.08933686  0.25922811  0.24741800     0.11400
C419        C  0.11233528  0.27065671  0.22475151    -0.03000
C420        C  0.11082615  0.27029831  0.17834829    -0.05700
C421        C  0.08738762  0.25848182  0.15416502    -0.16500
C422        C  0.06494233  0.24586019  0.17733592     0.02400
C423        C  0.08915510  0.25898508  0.29619214     0.12300
C424        C  0.13828109  0.28316132  0.24958893     0.63000
H425        H  0.12800192  0.27949760  0.16054118     0.12400
C426        C  0.04040195  0.23006719  0.15387211     0.55100
H427        H  0.04953179  0.23741697  0.24217721     0.08200
C428        C  0.07366658  0.28017755  0.32106275    -0.05600
C429        C  0.07537943  0.27909763  0.36732468    -0.06400
C430        C  0.09140284  0.25720238  0.38891228    -0.16000
C431        C  0.10547538  0.23507490  0.36386434    -0.01500
C432        C  0.10417982  0.23643822  0.31762618    -0.09100
C433        C  0.05489189  0.30329974  0.29878757     0.65200
H434        H  0.06405011  0.29531349  0.38714311     0.10600
C435        C  0.12100162  0.20977154  0.38576462     0.63600
H436        H  0.11505869  0.21997704  0.29767873     0.08000
F437        F  0.02274321  0.24923966  0.13061740    -0.19500
F438        F  0.02339610  0.21642773  0.18310336    -0.15700
F439        F  0.05168799  0.20915207  0.12545656    -0.19200
F440        F  0.15193764  0.26217932  0.27495812    -0.22600
F441        F  0.12950165  0.30594644  0.27683407    -0.24100
F442        F  0.15821619  0.29321599  0.22123400    -0.18000
F443        F  0.12930944  0.18854659  0.35533818    -0.20500
F444        F  0.10294667  0.19746961  0.41485295    -0.21700
F445        F  0.14545600  0.21925473  0.40828677    -0.18900
F446        F  0.04294885  0.32266455  0.32913800    -0.19000
F447        F  0.03258911  0.29048466  0.27491817    -0.22800
F448        F  0.07100864  0.31865907  0.27055957    -0.24400
C449        C  0.26784799  0.07041701  0.82320429    -0.11200
C450        C  0.25326937  0.09176210  0.79871830     0.11400
C451        C  0.23693317  0.11376800  0.82052471    -0.03000
C452        C  0.23666434  0.11424392  0.86692983    -0.05700
C453        C  0.25122566  0.09284891  0.89188545    -0.16500
C454        C  0.26712418  0.07033752  0.86955372     0.02400
C455        C  0.25482559  0.08997215  0.74995817     0.12300
C456        C  0.21916820  0.13606322  0.79470259     0.63000
H457        H  0.22431597  0.13100515  0.88409155     0.12400
C458        C  0.28374241  0.04647265  0.89386674     0.55100
H459        H  0.27969173  0.05358393  0.80536267     0.08200
C460        C  0.27723372  0.10267508  0.72747402    -0.05600
C461        C  0.27596777  0.10208244  0.68106615    -0.06400
C462        C  0.25394358  0.08797753  0.65694683    -0.16000
C463        C  0.23260015  0.07361295  0.67958770    -0.01500
C464        C  0.23334000  0.07506867  0.72601130    -0.09100
C465        C  0.30258389  0.11620033  0.75243483     0.65200
H466        H  0.29238627  0.11243571  0.66309101     0.10600
C467        C  0.20858299  0.05782070  0.65495610     0.63600
H468        H  0.21689721  0.06490119  0.74417056     0.08000
F469        F  0.30022541  0.02926090  0.86571538    -0.19500
F470        F  0.26471918  0.02878160  0.91345148    -0.15700
F471        F  0.30221724  0.05836734  0.92568738    -0.19200
F472        F  0.19796494  0.12240878  0.76955187    -0.22600
F473        F  0.23650635  0.15053294  0.76708432    -0.24100
F474        F  0.20588305  0.15635286  0.82224043    -0.18000
F475        F  0.22009673  0.03499640  0.63030781    -0.20500
F476        F  0.19357019  0.07663405  0.62734991    -0.21700
F477        F  0.18923854  0.04678084  0.68338272    -0.18900
F478        F  0.32160679  0.12795901  0.72420548    -0.19000
F479        F  0.31748084  0.09532226  0.77649204    -0.22800
F480        F  0.29302609  0.13793892  0.78096201    -0.24400
C481        C  0.27363778  0.08675128  0.32064091    -0.11200
C482        C  0.25570654  0.10748034  0.29989477     0.11400
C483        C  0.23793800  0.12623217  0.32559172    -0.03000
C484        C  0.23906589  0.12377848  0.37185105    -0.05700
C485        C  0.25631640  0.10236468  0.39270210    -0.16500
C486        C  0.27425613  0.08367780  0.36670409     0.02400
C487        C  0.25391279  0.10696522  0.25087106     0.12300
C488        C  0.21701634  0.14784260  0.30396422     0.63000
H489        H  0.22545094  0.13779002  0.39200534     0.12400
C490        C  0.29416622  0.06063828  0.38710343     0.55100
H491        H  0.28657832  0.07233303  0.30007095     0.08200
C492        C  0.27318950  0.12195765  0.22521497    -0.05600
C493        C  0.26959753  0.12048444  0.17889960    -0.06400
C494        C  0.24863136  0.10318072  0.15783767    -0.16000
C495        C  0.23008564  0.08730716  0.18364425    -0.01500
C496        C  0.23292118  0.08978106  0.22989676    -0.09100
C497        C  0.29809553  0.13836765  0.24655225     0.65200
H498        H  0.28392751  0.13197836  0.15859511     0.10600
C499        C  0.20717895  0.06810723  0.16266700     0.63600
H500        H  0.21897356  0.07792346  0.25032901     0.08000
F501        F  0.31268794  0.04821502  0.35665511    -0.19500
F502        F  0.27807639  0.03884962  0.40312521    -0.15700
F503        F  0.31082144  0.07270552  0.42110157    -0.19200
F504        F  0.19677461  0.13330107  0.27811427    -0.22600
F505        F  0.23160439  0.16594369  0.27765507    -0.24100
F506        F  0.20253308  0.16479954  0.33485688    -0.18000
F507        F  0.22017121  0.04438812  0.14195812    -0.20500
F508        F  0.19055398  0.08344397  0.13214812    -0.21700
F509        F  0.18896014  0.05808310  0.19364516    -0.18900
F510        F  0.31402862  0.15165451  0.21556330    -0.19000
F511        F  0.31633053  0.11943148  0.26927698    -0.22800
F512        F  0.28795490  0.15944315  0.27568901    -0.24400
C513        C  0.43290356  0.26225742  0.79732355    -0.11200
C514        C  0.40831521  0.25199530  0.77492998     0.11400
C515        C  0.38598686  0.24036278  0.79871498    -0.03000
C516        C  0.38787447  0.24200643  0.84503629    -0.05700
C517        C  0.41197804  0.25349621  0.86804033    -0.16500
C518        C  0.43549800  0.26290217  0.84361905     0.02400
C519        C  0.40736173  0.25282365  0.72622952     0.12300
C520        C  0.36073251  0.22569290  0.77522564     0.63000
H521        H  0.37055810  0.23382818  0.86370629     0.12400
C522        C  0.46303849  0.27411064  0.86546690     0.55100
H523        H  0.45010241  0.26990170  0.77783387     0.08200
C524        C  0.39774784  0.27781286  0.70358650    -0.05600
C525        C  0.39807800  0.27716623  0.65726532    -0.06400
C526        C  0.40885149  0.25295844  0.63365014    -0.16000
C527        C  0.41929517  0.22829903  0.65642535    -0.01500
C528        C  0.41829101  0.22869318  0.70267724    -0.09100
C529        C  0.38778989  0.30514530  0.72826999     0.65200
H530        H  0.39044723  0.29582163  0.63902106     0.10600
C531        C  0.43076689  0.20150716  0.63204787     0.63600
H532        H  0.42619033  0.21019675  0.72104478     0.08000
F533        F  0.48199860  0.28346143  0.83499078    -0.19500
F534        F  0.47709712  0.25238369  0.88888892    -0.15700
F535        F  0.45645694  0.29722303  0.89341760    -0.19200
F536        F  0.37079258  0.20255865  0.74973589    -0.22600
F537        F  0.34579111  0.24492973  0.74828836    -0.24100
F538        F  0.34165692  0.21531695  0.80467256    -0.18000
F539        F  0.45483253  0.20807928  0.60911295    -0.20500
F540        F  0.40974970  0.19125203  0.60277075    -0.21700
F541        F  0.43863401  0.17963844  0.66064065    -0.18900
F542        F  0.38019394  0.32714806  0.69979494    -0.19000
F543        F  0.40972500  0.31481053  0.75635625    -0.22800
F544        F  0.36408544  0.29966149  0.75272396    -0.24400
C545        C  0.42533582  0.27433050  0.20663259    -0.11200
C546        C  0.40494936  0.25788605  0.22671820     0.11400
C547        C  0.38483261  0.24210663  0.20033185    -0.03000
C548        C  0.38619118  0.24310910  0.15409391    -0.05700
C549        C  0.40736816  0.25870478  0.13385286    -0.16500
C550        C  0.42750694  0.27450378  0.16056809     0.02400
C551        C  0.40545608  0.25777740  0.27566085     0.12300
C552        C  0.36217186  0.22424732  0.22091536     0.63000
H553        H  0.37098954  0.23122267  0.13329898     0.12400
C554        C  0.45125013  0.29155049  0.14105195     0.55100
H555        H  0.44011765  0.28653775  0.22770919     0.08200
C556        C  0.42653788  0.24165406  0.30015864    -0.05600
C557        C  0.42612505  0.24323082  0.34650869    -0.06400
C558        C  0.40535890  0.26020590  0.36884465    -0.16000
C559        C  0.38446131  0.27666964  0.34410521    -0.06300
C560        C  0.38514246  0.27527282  0.29775508    -0.09100
C561        C  0.44930125  0.22281687  0.27743415     0.65200
H562        H  0.44194102  0.23087118  0.36578491     0.10600
C563        C  0.36184402  0.29610094  0.36607677     0.63600
H564        H  0.36966465  0.28781121  0.27813513     0.08000
F565        F  0.47127297  0.27276118  0.12206473    -0.19500
F566        F  0.46572628  0.30814179  0.17282072    -0.15700
F567        F  0.43965788  0.30995103  0.10954346    -0.19200
F568        F  0.34289759  0.24225426  0.24303842    -0.22600
F569        F  0.37514710  0.20523810  0.25035640    -0.24100
F570        F  0.34678372  0.20825059  0.18944266    -0.18000
F571        F  0.34705610  0.31349807  0.33602605    -0.20500
F572        F  0.37484002  0.31395751  0.39768503    -0.21700
F573        F  0.34190251  0.27943102  0.38561682    -0.18900
F574        F  0.46602504  0.20699745  0.30731011    -0.19000
F575        F  0.46744457  0.23986252  0.25492404    -0.22800
F576        F  0.43623999  0.20360315  0.24794487    -0.24400
C577        C  0.26396835  0.43423309  0.67863799    -0.11200
C578        C  0.24601872  0.41482796  0.69812153     0.11400
C579        C  0.22846322  0.39660185  0.67113316    -0.03000
C580        C  0.23055670  0.39757419  0.62499627    -0.05700
C581        C  0.24876830  0.41681081  0.60540128    -0.16500
C582        C  0.26580881  0.43557036  0.63257809     0.02400
C583        C  0.24621745  0.41435833  0.74707152     0.12300
C584        C  0.20748263  0.37647454  0.69098241     0.63000
H585        H  0.21749230  0.38367859  0.60370777     0.12400
C586        C  0.28653503  0.45630876  0.61341973     0.55100
H587        H  0.27668906  0.44833144  0.70011283     0.08200
C588        C  0.26832851  0.39966048  0.77162046    -0.05600
C589        C  0.26782654  0.40107069  0.81802608    -0.06400
C590        C  0.24635267  0.41712162  0.84019729    -0.16000
C591        C  0.22394941  0.43139195  0.81554370    -0.01500
C592        C  0.22453548  0.43005939  0.76917573    -0.09100
C593        C  0.29258582  0.38303855  0.74879390     0.65200
H594        H  0.28462848  0.39016564  0.83747590     0.10600
C595        C  0.19901374  0.44708471  0.83800421     0.63600
H596        H  0.20808060  0.44140627  0.74964795     0.08000
F597        F  0.30362432  0.46949154  0.64591920    -0.19500
F598        F  0.27127376  0.47782154  0.59123269    -0.15700
F599        F  0.30458754  0.44149701  0.58466280    -0.19200
F600        F  0.18746245  0.39236189  0.71501636    -0.22600
F601        F  0.22219491  0.35742383  0.71852202    -0.24100
F602        F  0.19262181  0.36053414  0.65883757    -0.18000
F603        F  0.20878806  0.47124714  0.86096162    -0.20500
F604        F  0.18668494  0.42887045  0.86689890    -0.21700
F605        F  0.17772225  0.45600352  0.80790120    -0.18900
F606        F  0.31051785  0.36840061  0.77852782    -0.19000
F607        F  0.30910277  0.40193874  0.72676270    -0.22800
F608        F  0.28135788  0.36300362  0.71879782    -0.24400
C609        C  0.22905847  0.40710483  0.17568944    -0.11200
C610        C  0.25051601  0.42271268  0.19855997     0.11400
C611        C  0.27074063  0.43784897  0.17486921    -0.03000
C612        C  0.26870470  0.43676663  0.12848678    -0.05700
C613        C  0.24740217  0.42090389  0.10561130    -0.16500
C614        C  0.22667184  0.40646863  0.12936835     0.02400
C615        C  0.25113789  0.42260037  0.24745607     0.12300
C616        C  0.29461477  0.45459261  0.19841496     0.63000
H617        H  0.28418714  0.44779842  0.10958153     0.12400
C618        C  0.20136738  0.39173314  0.10613158     0.55100
H619        H  0.21392889  0.39564444  0.19464643     0.08200
C620        C  0.23175155  0.44001928  0.27246870    -0.05600
C621        C  0.23280106  0.43785651  0.31863828    -0.06400
C622        C  0.25241710  0.41888807  0.34019389    -0.16000
C623        C  0.27231070  0.40197643  0.31511883    -0.01500
C624        C  0.27094713  0.40385360  0.26887557    -0.09100
C625        C  0.21017406  0.46086333  0.25049007     0.65200
H626        H  0.21796193  0.45076809  0.33838601     0.10600
C627        C  0.29558295  0.38292522  0.33691171     0.63600
H628        H  0.28535886  0.39060905  0.24887360     0.08000
F629        F  0.18189089  0.38234591  0.13579913    -0.19500
F630        F  0.21103418  0.36801733  0.08159158    -0.15700
F631        F  0.18687518  0.41095234  0.07852757    -0.19200
F632        F  0.31341690  0.43568582  0.22012107    -0.22600
F633        F  0.28310652  0.47414476  0.22877734    -0.24100
F634        F  0.31023609  0.46983072  0.16925406    -0.18000
F635        F  0.28324803  0.35988561  0.35631355    -0.20500
F636        F  0.31074884  0.39883560  0.36870379    -0.21700
F637        F  0.31509334  0.37191787  0.30676378    -0.18900
F638        F  0.19421452  0.47656928  0.28111138    -0.19000
F639        F  0.19116196  0.44583263  0.22311200    -0.22800
F640        F  0.22449366  0.48016289  0.22580193    -0.24400
O641        O  0.24619186  0.94375611  0.91093923    -0.73800
O642        O  0.24726036  0.94214465  0.03746905    -0.73800
O643        O  0.28833195  0.94224091  0.97622600    -0.73800
O644        O  0.20524296  0.94349150  0.97299210    -0.73900
O645        O  0.20645241  0.89563667  0.96992878    -0.73800
O646        O  0.28940321  0.89432675  0.97152653    -0.73800
O647        O  0.24847593  0.89402857  0.03386885    -0.73800
O648        O  0.24719766  0.89560895  0.90762695    -0.73800
Ni649      Ni  0.24676657  0.94462075  0.97443246     1.25400
Ni650      Ni  0.24791301  0.89321853  0.97059079     1.25400
C651        C  0.24630328  0.91990021  0.88850264     0.88400
C652        C  0.24771952  0.91778482  0.05644543     0.88400
C653        C  0.30276326  0.91816615  0.97454760     0.88400
C654        C  0.19189102  0.91963081  0.97103814     0.88600
O655        O  0.25193334  0.94055854  0.40990160    -0.73800
O656        O  0.24894551  0.94182399  0.53556132    -0.73800
O657        O  0.29160566  0.94212401  0.47769311    -0.73800
O658        O  0.20955034  0.93998183  0.46867639    -0.73900
O659        O  0.21149385  0.89214903  0.46891834    -0.73800
O660        O  0.29433069  0.89424354  0.47426555    -0.73800
O661        O  0.25241535  0.89386585  0.53516073    -0.73800
O662        O  0.25346054  0.89245945  0.40881144    -0.73800
Ni663      Ni  0.25043567  0.94277585  0.47290724     1.25400
Ni664      Ni  0.25303375  0.89141778  0.47182089     1.25400
C665        C  0.25307441  0.91632170  0.38857234     0.88400
C666        C  0.25044970  0.91819445  0.55629196     0.88400
C667        C  0.30677637  0.91861394  0.47699838     0.88400
C668        C  0.19666415  0.91593020  0.46724362     0.88600
O669        O  0.38740828  0.71576805  0.97824295    -0.73800
O670        O  0.38818909  0.79812789  0.97590885    -0.73800
O671        O  0.38908572  0.75469321  0.91420266    -0.73800
O672        O  0.38700397  0.75883805  0.04070923    -0.73900
O673        O  0.43505323  0.75670691  0.04489200    -0.73800
O674        O  0.43713271  0.75342766  0.91899166    -0.73800
O675        O  0.43598050  0.79652783  0.98223373    -0.73800
O676        O  0.43534301  0.71353201  0.98308393    -0.73800
Ni677      Ni  0.38623081  0.75694579  0.97711255     1.25400
Ni678      Ni  0.43760212  0.75497563  0.98225884     1.25400
C679        C  0.41104742  0.70095512  0.98179891     0.88400
C680        C  0.41209670  0.81118065  0.97951293     0.88400
C681        C  0.41355807  0.75343339  0.89585610     0.88400
C682        C  0.41078930  0.75856949  0.06356297     0.88600
O683        O  0.43665822  0.75154276  0.54332782    -0.73800
O684        O  0.43380372  0.75634740  0.41722003    -0.73800
O685        O  0.43628730  0.79532681  0.48554881    -0.73800
O686        O  0.43424797  0.71295901  0.47543475    -0.73900
O687        O  0.38651477  0.71490772  0.47696640    -0.73800
O688        O  0.38848832  0.79803869  0.48215421    -0.73800
O689        O  0.38588966  0.75727472  0.41695314    -0.73800
O690        O  0.38874776  0.75539703  0.54305292    -0.73800
Ni691      Ni  0.43692746  0.75399579  0.48035161     1.25400
Ni692      Ni  0.38569079  0.75654123  0.47990950     1.25400
C693        C  0.41305216  0.75221683  0.56396984     0.88400
C694        C  0.40936773  0.75753112  0.39615934     0.88400
C695        C  0.41281934  0.81056561  0.48409310     0.88400
C696        C  0.41022879  0.70004842  0.47466610     0.88600
O697        O  0.25009774  0.57792493  0.08071967    -0.73800
O698        O  0.25226641  0.57428928  0.95457339    -0.73800
O699        O  0.29185287  0.57732009  0.02095445    -0.73800
O700        O  0.21010073  0.57471155  0.01388421    -0.73900
O701        O  0.20732759  0.62261947  0.01604723    -0.73800
O702        O  0.29025140  0.62509734  0.01883323    -0.73800
O703        O  0.24857152  0.62231227  0.95355197    -0.73800
O704        O  0.24908986  0.62598471  0.08006002    -0.73800
Ni705      Ni  0.25115091  0.57441656  0.01759602     1.25400
Ni706      Ni  0.24864914  0.62577635  0.01691945     1.25400
C707        C  0.24937880  0.60246923  0.10123104     0.88400
C708        C  0.25116368  0.59775208  0.93328695     0.88400
C709        C  0.30488538  0.60123240  0.02160552     0.88400
C710        C  0.19494241  0.59816987  0.01487838     0.88600
O711        O  0.25496128  0.56937942  0.57694916    -0.73800
O712        O  0.25492457  0.57397166  0.45062341    -0.73800
O713        O  0.29625128  0.57150966  0.51504455    -0.73800
O714        O  0.21345104  0.57152589  0.51128507    -0.73900
O715        O  0.21195586  0.61929528  0.51950449    -0.73800
O716        O  0.29464327  0.61943729  0.52158727    -0.73800
O717        O  0.25273973  0.62196759  0.45715342    -0.73800
O718        O  0.25406886  0.61742015  0.58294582    -0.73800
Ni719      Ni  0.25491523  0.56986743  0.51340794     1.25400
Ni720      Ni  0.25327302  0.62120953  0.52046062     1.25400
C721        C  0.25451013  0.59271780  0.60073658     0.88400
C722        C  0.25426770  0.59881373  0.43310638     0.88400
C723        C  0.30919337  0.59556779  0.51770610     0.88400
C724        C  0.19885865  0.59535517  0.51498817     0.88600
O725        O  0.06478201  0.76177305  0.07468985    -0.73800
O726        O  0.06656094  0.75866050  0.94901599    -0.73800
O727        O  0.06447285  0.71916103  0.01154805    -0.73800
O728        O  0.06695724  0.80134226  0.01071371    -0.73900
O729        O  0.11487598  0.79904274  0.01515779    -0.73800
O730        O  0.11228452  0.71634171  0.01723964    -0.73800
O731        O  0.11453746  0.75570901  0.95247921    -0.73800
O732        O  0.11281683  0.75964371  0.07901476    -0.73800
Ni733      Ni  0.06404599  0.76034293  0.01149104     1.25400
Ni734      Ni  0.11539992  0.75755590  0.01607776     1.25400
C735        C  0.08843220  0.76107084  0.09761613     0.88400
C736        C  0.09066789  0.75702400  0.92992352     0.88400
C737        C  0.08789699  0.70398866  0.01433529     0.88400
C738        C  0.09116984  0.81392987  0.01240419     0.88600
O739        O  0.06915241  0.75970316  0.44904788    -0.73800
O740        O  0.06800578  0.76120202  0.57560695    -0.73800
O741        O  0.06874794  0.80184102  0.51200933    -0.73800
O742        O  0.06816562  0.71891132  0.51154272    -0.73900
O743        O  0.11597366  0.71724181  0.51703588    -0.73800
O744        O  0.11666745  0.79998136  0.51584449    -0.73800
O745        O  0.11599426  0.75995785  0.57890543    -0.73800
O746        O  0.11710497  0.75737756  0.45272495    -0.73800
Ni747      Ni  0.06680008  0.76045689  0.51207033     1.25400
Ni748      Ni  0.11811346  0.75855135  0.51619394     1.25400
C749        C  0.09338968  0.75865617  0.42992735     0.88400
C750        C  0.09191626  0.76083426  0.59814503     0.88400
C751        C  0.09285048  0.81466291  0.51269104     0.88400
C752        C  0.09197333  0.70421349  0.51455860     0.88600
N753        N  0.37897596  0.88628334  0.97713163    -0.35900
N754        N  0.37712515  0.94848117  0.98424653    -0.56500
N755        N  0.44025315  0.94855410  0.99648905    -0.35900
N756        N  0.44201342  0.88584880  0.98916517    -0.56500
C757        C  0.35135848  0.89253989  0.98838432     0.27600
C758        C  0.38592897  0.85932320  0.99096754     0.27700
C759        C  0.43367203  0.97561458  0.98333323     0.27600
C760        C  0.46777713  0.94284684  0.98521281     0.27600
C761        C  0.35007574  0.94349817  0.96835566     0.36300
C762        C  0.38202894  0.97650199  0.97699867     0.36300
C763        C  0.43755822  0.85845446  0.97438745     0.36300
C764        C  0.47021284  0.89076689  0.98357804     0.36300
C765        C  0.34102296  0.86964344  0.01102997    -0.21200
C766        C  0.36279466  0.84877554  0.01276399    -0.21200
C767        C  0.45634464  0.98640722  0.96098334    -0.21200
C768        C  0.47796931  0.96567635  0.96220408    -0.21200
C769        C  0.33849850  0.96808875  0.94854737    -0.22300
C770        C  0.35879538  0.98896217  0.95397514    -0.22300
C771        C  0.46269331  0.84661697  0.95697972    -0.22300
C772        C  0.48328326  0.86708156  0.96270043    -0.22300
C773        C  0.33530814  0.91792437  0.97634001    -0.17600
C774        C  0.41185189  0.84364476  0.98101585    -0.17600
C775        C  0.48365291  0.91719950  0.99427874    -0.17600
C776        C  0.40749037  0.99064578  0.99079251    -0.17600
H777        H  0.32022130  0.86813451  0.02566705     0.15300
H778        H  0.36165216  0.82836897  0.02896714     0.15300
H779        H  0.45753891  0.50403768  0.94540153     0.15300
H780        H  0.99497003  0.96623080  0.94786878     0.15300
H781        H  0.31779703  0.97092209  0.93157230     0.13600
H782        H  0.35872991  0.51019357  0.94289094     0.13600
H783        H  0.46609204  0.82573343  0.94095762     0.13600
H784        H  0.00152428  0.86396296  0.95618316     0.13600
H785        H  0.39137819  0.89845285  0.95689181     0.26800
H786        H  0.42769473  0.93595254  0.01585095     0.26800
N787        N  0.38240137  0.88703900  0.47926363    -0.35900
N788        N  0.38077791  0.95045926  0.48304530    -0.56500
N789        N  0.45707608  0.96146610  0.49188563    -0.35900
N790        N  0.44500331  0.88452467  0.48450178    -0.56500
C791        C  0.35533828  0.89442072  0.49205114     0.27600
C792        C  0.38881835  0.86007466  0.49406195     0.27700
C793        C  0.43528765  0.97369977  0.46720937     0.27600
C794        C  0.46766597  0.93908231  0.46685861     0.27600
C795        C  0.35305977  0.94571628  0.47089134     0.36300
C796        C  0.38517352  0.97880557  0.47696753     0.36300
C797        C  0.43995559  0.85657826  0.47406650     0.36300
C798        C  0.47301920  0.88879425  0.47642504     0.36300
C799        C  0.34506345  0.87244867  0.51680224    -0.21200
C800        C  0.36607688  0.85089467  0.51806635    -0.21200
C801        C  0.43297234  0.95964864  0.42626419    -0.21200
C802        C  0.45324105  0.93775339  0.42616197    -0.21200
C803        C  0.34033534  0.97112843  0.45471897    -0.22300
C804        C  0.36065012  0.99212887  0.45908535    -0.22300
C805        C  0.46478929  0.84344409  0.45716970    -0.22300
C806        C  0.48573778  0.86388272  0.45886554    -0.22300
C807        C  0.33911303  0.91957160  0.47917292    -0.17600
C808        C  0.41388989  0.84304460  0.48370467    -0.17600
C809        C  0.48558110  0.91613356  0.48185999    -0.17600
C810        C  0.41248575  0.99117006  0.48357823    -0.17600
H811        H  0.32468214  0.87200131  0.53299993     0.15300
H812        H  0.36473572  0.83093698  0.53542439     0.15300
H813        H  0.42899120  0.45852510  0.41986022     0.15300
H814        H  0.95847582  0.92213652  0.40300367     0.15300
H815        H  0.31895695  0.97460666  0.44035446     0.13600
H816        H  0.36076267  0.51300847  0.45250388     0.13600
H817        H  0.46777034  0.82175212  0.44378917     0.13600
H818        H  0.00669195  0.86231532  0.45187777     0.13600
H819        H  0.39445309  0.89844384  0.45752939     0.26800
H820        H  0.46178091  0.96562276  0.52533782     0.26800
N821        N  0.37802665  0.62896914  0.99987623    -0.35900
N822        N  0.37865340  0.56721851  0.01006687    -0.56500
N823        N  0.44145133  0.56305882  0.99586652    -0.35900
N824        N  0.44008347  0.62551232  0.99275068    -0.56500
C825        C  0.35241760  0.62634686  0.01930853     0.27600
C826        C  0.38544794  0.65695455  0.00471213     0.27700
C827        C  0.43477193  0.53746646  0.01216132     0.27600
C828        C  0.46783030  0.56997504  0.01301033     0.27600
C829        C  0.35212963  0.57329816  0.02552412     0.36300
C830        C  0.38351598  0.53859637  0.01537638     0.36300
C831        C  0.43374404  0.65108580  0.97399298     0.36300
C832        C  0.46658884  0.61699381  0.97960095     0.36300
C833        C  0.34365419  0.65286061  0.03731004    -0.21200
C834        C  0.36457275  0.67209120  0.02853401    -0.21200
C835        C  0.45641416  0.52809025  0.04119044    -0.21200
C836        C  0.47724234  0.54863208  0.04204394    -0.21200
C837        C  0.34155409  0.54891774  0.04436760    -0.22300
C838        C  0.36138548  0.52701541  0.03782461    -0.22300
C839        C  0.45587835  0.65838237  0.94719553    -0.22300
C840        C  0.47666351  0.63659456  0.95051705    -0.22300
C841        C  0.33728076  0.60043985  0.02241237    -0.17600
C842        C  0.40990866  0.66895542  0.98598394    -0.17600
C843        C  0.48287056  0.59472208  0.00065805    -0.17600
C844        C  0.40873964  0.52331334  0.00292308    -0.17600
H845        H  0.32494406  0.65769257  0.05681860     0.15300
H846        H  0.36452538  0.69445875  0.03969828     0.15300
H847        H  0.45669816  0.50890012  0.06075245     0.15300
H848        H  0.99530500  0.54655994  0.05941657     0.15300
H849        H  0.32232932  0.54703911  0.06308179     0.13600
H850        H  0.36015950  0.50536367  0.04994475     0.13600
H851        H  0.45729872  0.67763108  0.92811677     0.13600
H852        H  0.99658908  0.64058694  0.93998499     0.13600
H853        H  0.38844786  0.61332268  0.98032610     0.26800
H854        H  0.42925471  0.57398970  0.97169467     0.26800
N855        N  0.38169031  0.62739728  0.49944028    -0.35900
N856        N  0.38475715  0.56496626  0.50936548    -0.56500
N857        N  0.44760843  0.56335105  0.50784626    -0.35900
N858        N  0.44300374  0.62548952  0.48648476    -0.56500
C859        C  0.35358462  0.62040266  0.49535851     0.27600
C860        C  0.38439483  0.65296499  0.47949340     0.27700
C861        C  0.44130201  0.53600779  0.49414787     0.27600
C862        C  0.47409970  0.56884765  0.49356447     0.27600
C863        C  0.35860581  0.57148818  0.52609529     0.36300
C864        C  0.39242590  0.53803768  0.52252160     0.36300
C865        C  0.43696251  0.65192539  0.47010734     0.36300
C866        C  0.47115479  0.61974909  0.47897802     0.36300
C867        C  0.33849454  0.64151608  0.47160712    -0.21200
C868        C  0.35781886  0.66211865  0.46209662    -0.21200
C869        C  0.46396303  0.52480645  0.46944110    -0.21200
C870        C  0.48461907  0.54537997  0.46955118    -0.21200
C871        C  0.35007782  0.54891422  0.55129507    -0.22300
C872        C  0.37149055  0.52775008  0.54900016    -0.22300
C873        C  0.46066625  0.66160013  0.44872886    -0.22300
C874        C  0.48222154  0.64111955  0.45413398    -0.22300
C875        C  0.34131335  0.59603070  0.51414527    -0.17600
C876        C  0.41044240  0.66753407  0.47463004    -0.17600
C877        C  0.48714065  0.59590653  0.49581261    -0.17600
C878        C  0.41583869  0.52154400  0.50492282    -0.17600
H879        H  0.31610210  0.64182880  0.46057208     0.15300
H880        H  0.35298144  0.68071799  0.44210828     0.15300
H881        H  0.46543689  0.50492739  0.45045654     0.15300
H882        H  0.00060063  0.55085407  0.44738414     0.15300
H883        H  0.33031573  0.54747869  0.56889854     0.13600
H884        H  0.37125323  0.50679738  0.56385261     0.13600
H885        H  0.46224806  0.68087365  0.42979347     0.13600
H886        H  0.00197077  0.64588935  0.45191798     0.13600
H887        H  0.39746013  0.61668059  0.51855271     0.26800
H888        H  0.43542475  0.57724561  0.52803131     0.26800
N889        N  0.11901104  0.62856978  0.01680841    -0.35900
N890        N  0.05579878  0.63024169  0.01002199    -0.56500
N891        N  0.04525358  0.55444333  0.00251489    -0.35900
N892        N  0.12119332  0.56619788  0.01530356    -0.56500
C893        C  0.11181638  0.65526093  0.00208134     0.27600
C894        C  0.14588589  0.62174734  0.00276211     0.27700
C895        C  0.03248609  0.57592893  0.02689351     0.27600
C896        C  0.06647673  0.54301849  0.02909894     0.27600
C897        C  0.06076212  0.65794475  0.02214330     0.36300
C898        C  0.02756653  0.62598352  0.01657895     0.36300
C899        C  0.14913394  0.57107298  0.02564998     0.36300
C900        C  0.11689743  0.53811208  0.02307701     0.36300
C901        C  0.13378098  0.66491150  0.97688846    -0.21200
C902        C  0.15519700  0.64379883  0.97723636    -0.21200
C903        C  0.04517660  0.57752625  0.06888151    -0.21200
C904        C  0.06665280  0.55683558  0.07022614    -0.21200
C905        C  0.03571875  0.67084411  0.03860139    -0.22300
C906        C  0.01473114  0.65053601  0.03511065    -0.22300
C907        C  0.16221879  0.54601377  0.04239028    -0.22300
C908        C  0.14173184  0.52510052  0.04050143    -0.22300
C909        C  0.08684238  0.67172747  0.01382274    -0.17600
C910        C  0.16270214  0.59698387  0.01512014    -0.17600
C911        C  0.08987416  0.52543810  0.01538256    -0.17600
C912        C  0.01504075  0.59868942  0.01033043    -0.17600
H913        H  0.13430116  0.68491994  0.95943252     0.15300
H914        H  0.17515399  0.64460780  0.95996824     0.15300
H915        H  0.54327709  0.59746303  0.09419270     0.15300
H916        H  0.08210689  0.55347708  0.09726589     0.15300
H917        H  0.03256726  0.69235195  0.05255171     0.13600
H918        H  0.49112097  0.65420192  0.04205793     0.13600
H919        H  0.18404446  0.54265358  0.05502585     0.13600
H920        H  0.14459939  0.50313691  0.05143561     0.13600
H921        H  0.10754951  0.61717371  0.03931347     0.26800
H922        H  0.04213275  0.55034357  0.96868212     0.26800
N923        N  0.12353559  0.62803779  0.51638868    -0.35900
N924        N  0.06070738  0.62997976  0.51225168    -0.56500
N925        N  0.06067043  0.56711605  0.50496030    -0.35900
N926        N  0.12383681  0.56562074  0.50946345    -0.56500
C927        C  0.11722073  0.65546107  0.50396653     0.27600
C928        C  0.15063097  0.62113935  0.50338428     0.27700
C929        C  0.03407481  0.57351484  0.51977324     0.27600
C930        C  0.06701535  0.53966065  0.51636894     0.27600
C931        C  0.06632799  0.65750723  0.52525204     0.36300
C932        C  0.03296045  0.62553230  0.52190048     0.36300
C933        C  0.15166103  0.56983660  0.52224291     0.36300
C934        C  0.11873709  0.53760259  0.51657919     0.36300
C935        C  0.14039391  0.66568433  0.48191643    -0.21200
C936        C  0.16125576  0.64406692  0.48123113    -0.21200
C937        C  0.02436030  0.55072600  0.54330745    -0.21200
C938        C  0.04520944  0.52922423  0.54102727    -0.21200
C939        C  0.04247012  0.67001012  0.54554572    -0.22300
C940        C  0.02146320  0.64970303  0.54368176    -0.22300
C941        C  0.16369331  0.54467406  0.53972827    -0.22300
C942        C  0.14274698  0.52440675  0.53653501    -0.22300
C943        C  0.09186432  0.67172861  0.51505137    -0.17600
C944        C  0.16641125  0.59540405  0.51401468    -0.17600
C945        C  0.09238932  0.52410627  0.50570814    -0.17600
C946        C  0.01840462  0.59945818  0.51228450    -0.17600
H947        H  0.14255178  0.68650034  0.46766196     0.15300
H948        H  0.18179892  0.64527853  0.46569869     0.15300
H949        H  0.53605093  0.59402814  0.59663452     0.15300
H950        H  0.04466193  0.50852140  0.55656457     0.15300
H951        H  0.04032505  0.69128596  0.56087740     0.13600
H952        H  0.49721750  0.65191809  0.54622603     0.13600
H953        H  0.18515397  0.54089367  0.55357789     0.13600
H954        H  0.14492352  0.50248142  0.54784188     0.13600
H955        H  0.11132379  0.61590931  0.53693048     0.26800
H956        H  0.07249618  0.57956543  0.48432576     0.26800
N957        N  0.12072612  0.88822438  0.99715309    -0.35900
N958        N  0.11688298  0.95058399  0.99158303    -0.56500
N959        N  0.05422895  0.95140444  0.99872662    -0.35900
N960        N  0.05845818  0.88790554  0.00472138    -0.56500
C961        C  0.14557678  0.89269297  0.97645033     0.27600
C962        C  0.11499205  0.85977316  0.99201945     0.27700
C963        C  0.06106807  0.97727665  0.01777281     0.27600
C964        C  0.02832865  0.94437428  0.01365492     0.27600
C965        C  0.14305677  0.94617125  0.97358264     0.36300
C966        C  0.10890445  0.97863139  0.98541436     0.36300
C967        C  0.06647336  0.86235357  0.02248057     0.36300
C968        C  0.03102900  0.89341180  0.01665583     0.36300
C969        C  0.15527857  0.86675447  0.95724927    -0.21200
C970        C  0.13610359  0.84608448  0.96711352    -0.21200
C971        C  0.03949668  0.98579093  0.04667148    -0.21200
C972        C  0.01879497  0.96520041  0.04361123    -0.21200
C973        C  0.15101322  0.97122484  0.95382661    -0.22300
C974        C  0.12928856  0.99153356  0.96073679    -0.22300
C975        C  0.04467507  0.85268087  0.04807414    -0.22300
C976        C  0.02220884  0.87247046  0.04445018    -0.22300
C977        C  0.15936959  0.91959269  0.97363414    -0.17600
C978        C  0.09138486  0.84614318  0.01029444    -0.17600
C979        C  0.01459647  0.91807979  0.00436755    -0.17600
C980        C  0.08565935  0.99320062  0.00729998    -0.17600
H981        H  0.17330626  0.86305948  0.93595859     0.15300
H982        H  0.13717958  0.82381981  0.95545772     0.15300
H983        H  0.03965059  0.50456551  0.06410221     0.15300
H984        H  0.50189333  0.96399527  0.06423789     0.15300
H985        H  0.16987892  0.97447813  0.93484737     0.13600
H986        H  0.13062654  0.51268518  0.94466368     0.13600
H987        H  0.04477143  0.83332674  0.06721360     0.13600
H988        H  0.50233424  0.87236759  0.05945072     0.13600
H989        H  0.10959351  0.90301030  0.01727429     0.26800
H990        H  0.06545189  0.93983911  0.97440629     0.26800
N991        N  0.12421674  0.88719479  0.49176803    -0.35900
N992        N  0.06173836  0.88960729  0.49976843    -0.56500
N993        N  0.06001863  0.95215001  0.49794611    -0.35900
N994        N  0.12256884  0.94873406  0.48077651    -0.56500
C995        C  0.11743776  0.85897126  0.48838251     0.27600
C996        C  0.14962071  0.89004019  0.47170287     0.27700
C997        C  0.03338808  0.94546343  0.48154953     0.27600
C998        C  0.06626162  0.97817392  0.48260925     0.27600
C999        C  0.06878989  0.86420670  0.51886913     0.36300
C1000       C  0.03498937  0.89760482  0.51292742     0.36300
C1001       C  0.14887567  0.94308303  0.46426695     0.36300
C1002       C  0.11718762  0.97730901  0.47598479     0.36300
C1003       C  0.13851671  0.84385868  0.46494808    -0.21200
C1004       C  0.15884364  0.86335976  0.45481325    -0.21200
C1005       C  0.02348691  0.96738062  0.45383307    -0.21200
C1006       C  0.04416044  0.98803793  0.45489046    -0.21200
C1007       C  0.04677335  0.85650729  0.54562910    -0.22300
C1008       C  0.02543753  0.87774811  0.54204190    -0.22300
C1009       C  0.15879093  0.96769264  0.44524732    -0.22300
C1010       C  0.13870505  0.98931903  0.45269817    -0.22300
C1011       C  0.09329313  0.84675755  0.50774597    -0.17600
C1012       C  0.16422975  0.91621131  0.46715945    -0.17600
C1013       C  0.09238501  0.99225371  0.49105085    -0.17600
C1014       C  0.01841042  0.92058623  0.49368879    -0.17600
H1015       H  0.13901484  0.82133225  0.45461771     0.15300
H1016       H  0.17739513  0.85849093  0.43499463     0.15300
H1017       H  0.50426162  0.96797005  0.43211073     0.15300
H1018       H  0.04215290  0.50818764  0.44079433     0.15300
H1019       H  0.04590040  0.83745105  0.56527593     0.13600
H1020       H  0.50350434  0.87612869  0.55409616     0.13600
H1021       H  0.17788892  0.96991514  0.42634534     0.13600
H1022       H  0.13765494  0.51063120  0.44238373     0.13600
H1023       H  0.11346085  0.90290529  0.51074472     0.26800
H1024       H  0.07264108  0.94082538  0.52118088     0.26800
C1025       C  0.11179539  0.77107995  0.72050202    -0.11200
C1026       C  0.09114788  0.75427736  0.73934930     0.11400
C1027       C  0.06942129  0.74144004  0.71217727    -0.03000
C1028       C  0.07046906  0.74417438  0.66618679    -0.05700
C1029       C  0.09175617  0.76020702  0.64700115    -0.16500
C1030       C  0.11228698  0.77475118  0.67470221     0.02400
C1031       C  0.09109874  0.75351948  0.78814839     0.12300
C1032       C  0.04493695  0.72551014  0.73169034     0.63000
H1033       H  0.05458662  0.73371872  0.64474148     0.12400
C1034       C  0.13382071  0.79510604  0.65666999     0.55100
H1035       H  0.12740153  0.78166961  0.74230136     0.08200
C1036       C  0.10959352  0.73475335  0.81295707    -0.05600
C1037       C  0.10917537  0.73682082  0.85937765    -0.06400
C1038       C  0.09066656  0.75667679  0.88112698    -0.16000
C1039       C  0.07244814  0.77566283  0.85599381    -0.01500
C1040       C  0.07333397  0.77386844  0.80982280    -0.09100
C1041       C  0.12949359  0.71266640  0.79050124     0.65200
H1042       H  0.12297289  0.72259589  0.87910846     0.10600
C1043       C  0.05263678  0.79831911  0.87745474     0.63600
H1044       H  0.05998352  0.78838939  0.78991957     0.08000
F1045       F  0.15495757  0.77949648  0.63453345    -0.19500
F1046       F  0.14725004  0.81132046  0.69000798    -0.15700
F1047       F  0.11982362  0.81413568  0.62820887    -0.19200
F1048       F  0.02856084  0.74442121  0.75732129    -0.22600
F1049       F  0.05582370  0.70340037  0.75757077    -0.24100
F1050       F  0.02688903  0.71363289  0.69925159    -0.18000
F1051       F  0.06811297  0.81464526  0.90833605    -0.20500
F1052       F  0.03053900  0.78504995  0.89771051    -0.21700
F1053       F  0.04021155  0.81697426  0.84692376    -0.18900
F1054       F  0.14514645  0.69615591  0.82078309    -0.19000
F1055       F  0.14879695  0.72650937  0.76526565    -0.22800
F1056       F  0.11352662  0.69421100  0.76350041    -0.24400
C1057       C  0.07194413  0.74572637  0.21653295    -0.11200
C1058       C  0.08931537  0.76578459  0.23930166     0.11400
C1059       C  0.10677789  0.78401171  0.21556015    -0.03000
C1060       C  0.10548629  0.78206514  0.16917298    -0.05700
C1061       C  0.08776683  0.76227485  0.14630261    -0.16500
C1062       C  0.07097910  0.74344043  0.17020766     0.02400
C1063       C  0.09047003  0.76526916  0.28816889     0.12300
C1064       C  0.12698221  0.80502600  0.23910216     0.63000
H1065       H  0.11847759  0.79592514  0.15025796     0.12400
C1066       C  0.05342305  0.71998964  0.14716153     0.55100
H1067       H  0.05948081  0.73147257  0.23560489     0.08200
C1068       C  0.06949637  0.77970624  0.31413600    -0.05600
C1069       C  0.07173614  0.77735608  0.36027526    -0.06400
C1070       C  0.09355922  0.76027263  0.38094895    -0.16000
C1071       C  0.11397267  0.74501465  0.35441887    -0.01500
C1072       C  0.11210602  0.74806569  0.30840671    -0.09100
C1073       C  0.04433566  0.79663354  0.29310584     0.65200
H1074       H  0.05607734  0.78864767  0.38064927     0.10600
C1075       C  0.13651301  0.72421601  0.37380305     0.63600
H1076       H  0.12734409  0.73661275  0.28746409     0.08000
F1077       F  0.03098771  0.73229292  0.12237212    -0.19500
F1078       F  0.04168437  0.70191001  0.17689846    -0.15700
F1079       F  0.07095627  0.70327660  0.11995064    -0.19200
F1080       F  0.14728622  0.79001900  0.26457592    -0.22600
F1081       F  0.11155869  0.82394710  0.26603431    -0.24100
F1082       F  0.14149800  0.82112935  0.20966277    -0.18000
F1083       F  0.15122117  0.70876937  0.34142990    -0.20500
F1084       F  0.12309049  0.70461882  0.39903970    -0.21700
F1085       F  0.15653826  0.73915561  0.39949264    -0.18900
F1086       F  0.02755805  0.81068998  0.32442755    -0.19000
F1087       F  0.02700844  0.77798856  0.26861949    -0.22800
F1088       F  0.05426122  0.81718323  0.26567815    -0.24400
C1089       C  0.27478513  0.58096239  0.81597726    -0.11200
C1090       C  0.25395974  0.59684545  0.79156445     0.11400
C1091       C  0.23190054  0.61265426  0.81368933    -0.03000
C1092       C  0.23190709  0.61250241  0.86008834    -0.05700
C1093       C  0.25274494  0.59660566  0.88459316    -0.16500
C1094       C  0.27479829  0.58072785  0.86235431     0.02400
C1095       C  0.25524058  0.59553133  0.74267811     0.12300
C1096       C  0.20825395  0.62925215  0.78841083     0.63000
H1097       H  0.21522196  0.62439093  0.87769654     0.12400
C1098       C  0.29885999  0.56448126  0.88730575     0.55100
H1099       H  0.29110261  0.56866661  0.79818363     0.08200
C1100       C  0.27445901  0.61227324  0.71952565    -0.05600
C1101       C  0.27390237  0.61009373  0.67314793    -0.06400
C1102       C  0.25498834  0.59175356  0.64954551    -0.16000
C1103       C  0.23593953  0.57487525  0.67286754    -0.01500
C1104       C  0.23684119  0.57670914  0.71926584    -0.09100
C1105       C  0.29518342  0.63256369  0.74358182     0.65200
H1106       H  0.28822464  0.62289789  0.65475357     0.10600
C1107       C  0.21353033  0.55647370  0.64904928     0.63600
H1108       H  0.22268950  0.56384224  0.73785156     0.08000
F1109       F  0.31986400  0.55369715  0.85941867    -0.19500
F1110       F  0.28783503  0.54143648  0.90850018    -0.15700
F1111       F  0.31195528  0.58284333  0.91807813    -0.19200
F1112       F  0.19147795  0.61020611  0.76375153    -0.22600
F1113       F  0.22022599  0.64831193  0.76049403    -0.24100
F1114       F  0.19038431  0.64498667  0.81642380    -0.18000
F1115       F  0.22690741  0.53447607  0.62490603    -0.20500
F1116       F  0.19665879  0.57358161  0.62117574    -0.21700
F1117       F  0.19551769  0.54400677  0.67808236    -0.18900
F1118       F  0.31147914  0.64723484  0.71458909    -0.19000
F1119       F  0.31396531  0.61707745  0.77091801    -0.22800
F1120       F  0.27995411  0.65276895  0.76866467    -0.24400
C1121       C  0.27339320  0.58836296  0.31214302    -0.11200
C1122       C  0.25380556  0.60795842  0.29208734     0.11400
C1123       C  0.23427875  0.62439294  0.31824783    -0.03000
C1124       C  0.23561254  0.62109956  0.36427792    -0.05700
C1125       C  0.25486446  0.60110816  0.38444221    -0.16500
C1126       C  0.27431360  0.58451338  0.35803625     0.02400
C1127       C  0.25232598  0.60826356  0.24315781     0.12300
C1128       C  0.21148486  0.64450134  0.29752007     0.63000
H1129       H  0.22089006  0.63350765  0.38490276     0.12400
C1130       C  0.29633656  0.56325154  0.37794562     0.55100
H1131       H  0.28761394  0.57559293  0.29116914     0.08200
C1132       C  0.27061149  0.62510552  0.21850359    -0.05600
C1133       C  0.26833685  0.62311588  0.17210854    -0.06400
C1134       C  0.24954222  0.60388667  0.15008174    -0.16000
C1135       C  0.23159123  0.58673402  0.17494744    -0.01500
C1136       C  0.23329809  0.58937290  0.22122693    -0.09100
C1137       C  0.29309444  0.64420415  0.24097391     0.65200
H1138       H  0.28199129  0.63590111  0.15254301     0.10600
C1139       C  0.21021376  0.56625889  0.15296399     0.63600
H1140       H  0.22002252  0.57630472  0.24097041     0.08000
F1141       F  0.31525985  0.55226864  0.34691063    -0.19500
F1142       F  0.28246441  0.54024823  0.39490229    -0.15700
F1143       F  0.31238341  0.57686309  0.41121186    -0.19200
F1144       F  0.19304080  0.62877447  0.27013680    -0.22600
F1145       F  0.22428836  0.66494686  0.27304157    -0.24100
F1146       F  0.19517859  0.65891337  0.32906938    -0.18000
F1147       F  0.22480218  0.54367764  0.13184797    -0.20500
F1148       F  0.19285377  0.58100167  0.12266746    -0.21700
F1149       F  0.19251971  0.55454642  0.18318991    -0.18900
F1150       F  0.30871099  0.65852078  0.21069873    -0.19000
F1151       F  0.31223928  0.62749516  0.26597140    -0.22800
F1152       F  0.28004210  0.66471013  0.26821135    -0.24400
C1153       C  0.42758449  0.76912786  0.77631168    -0.11200
C1154       C  0.41187895  0.74743488  0.75429732     0.11400
C1155       C  0.39810919  0.72658142  0.77880957    -0.03000
C1156       C  0.39931433  0.72926321  0.82518417    -0.05700
C1157       C  0.41439441  0.75149724  0.84722378    -0.16500
C1158       C  0.42902975  0.77166166  0.82256941     0.02400
C1159       C  0.41065256  0.74741744  0.70540386     0.12300
C1160       C  0.38215802  0.70180474  0.75619022     0.63000
H1161       H  0.38848985  0.71395489  0.84474353     0.12400
C1162       C  0.44529037  0.79628243  0.84481954     0.55100
H1163       H  0.43844278  0.78436719  0.75667350     0.08200
C1164       C  0.39143047  0.76612482  0.68189929    -0.05600
C1165       C  0.39301437  0.76677974  0.63578720    -0.06400
C1166       C  0.41340432  0.74981008  0.61268101    -0.16000
C1167       C  0.43243858  0.73068137  0.63631482    -0.01500
C1168       C  0.43083282  0.73013845  0.68257077    -0.09100
C1169       C  0.36986105  0.78591034  0.70551092     0.65200
H1170       H  0.37867628  0.78124100  0.61736460     0.10600
C1171       C  0.45380805  0.71035105  0.61324425     0.63600
H1172       H  0.44562572  0.71643553  0.70155586     0.08000
F1173       F  0.45561225  0.81487980  0.81451377    -0.19500
F1174       F  0.46857700  0.78531529  0.86916357    -0.15700
F1175       F  0.42721924  0.81208205  0.87236281    -0.19200
F1176       F  0.40056387  0.68587164  0.72938983    -0.22600
F1177       F  0.35920271  0.71245424  0.73074841    -0.24100
F1178       F  0.37152116  0.68330767  0.78637545    -0.18000
F1179       F  0.47522214  0.72598807  0.59534917    -0.20500
F1180       F  0.43973113  0.69456396  0.58013826    -0.21700
F1181       F  0.46692737  0.69095339  0.64208346    -0.18900
F1182       F  0.35164739  0.80052842  0.67611545    -0.19000
F1183       F  0.38435004  0.80615038  0.73139303    -0.22800
F1184       F  0.35302871  0.77005779  0.73203234    -0.24400
C1185       C  0.42547665  0.77914646  0.18437685    -0.11200
C1186       C  0.40964048  0.75845723  0.20509897     0.11400
C1187       C  0.39310570  0.73864782  0.17930787    -0.03000
C1188       C  0.39367111  0.73976180  0.13304668    -0.05700
C1189       C  0.41035926  0.75976662  0.11225692    -0.16500
C1190       C  0.42643759  0.78000073  0.13814306     0.02400
C1191       C  0.41032710  0.75848476  0.25403306     0.12300
C1192       C  0.37482987  0.71660131  0.20059551     0.63000
H1193       H  0.38135479  0.72470131  0.11263480     0.12400
C1194       C  0.44422179  0.80263417  0.11723503     0.55100
H1195       H  0.43749337  0.79437818  0.20492158     0.08200
C1196       C  0.43329278  0.74531949  0.27871220    -0.05600
C1197       C  0.43190868  0.74549365  0.32493606    -0.06400
C1198       C  0.40860333  0.75861134  0.34713900    -0.16000
C1199       C  0.38601217  0.77266681  0.32216852    -0.06300
C1200       C  0.38746568  0.77233490  0.27588720    -0.09100
C1201       C  0.45913038  0.73115687  0.25634922     0.65200
H1202       H  0.44909597  0.73506035  0.34418946     0.10600
C1203       C  0.36060515  0.78832671  0.34360872     0.63600
H1204       H  0.37048959  0.78266469  0.25605091     0.08000
F1205       F  0.46783809  0.78948364  0.09757359    -0.19500
F1206       F  0.45424869  0.82282571  0.14812372    -0.15700
F1207       F  0.42762073  0.81720561  0.08580777    -0.19200
F1208       F  0.35270108  0.73064003  0.22273960    -0.22600
F1209       F  0.39149532  0.70057512  0.23018331    -0.24100
F1210       F  0.36274032  0.69763125  0.16964270    -0.18000
F1211       F  0.34393809  0.80399141  0.31344043    -0.20500
F1212       F  0.37036292  0.80748886  0.37617759    -0.21700
F1213       F  0.34308665  0.76849436  0.36171618    -0.18900
F1214       F  0.47860928  0.71893138  0.28651103    -0.19000
F1215       F  0.47339919  0.75151909  0.23363602    -0.22800
F1216       F  0.45013951  0.70959029  0.22710202    -0.24400
C1217       C  0.25959301  0.93976448  0.67837399    -0.11200
C1218       C  0.24716534  0.91639376  0.69799655     0.11400
C1219       C  0.23469868  0.89427411  0.67124638    -0.03000
C1220       C  0.23657888  0.89562211  0.62516803    -0.05700
C1221       C  0.24943931  0.91882371  0.60522357    -0.16500
C1222       C  0.26085875  0.94162809  0.63230930     0.02400
C1223       C  0.24707813  0.91637387  0.74686895     0.12300
C1224       C  0.21895591  0.86976677  0.69119738     0.63000
H1225       H  0.22740399  0.87873138  0.60419366     0.12400
C1226       C  0.27463869  0.96773469  0.61334805     0.55100
H1227       H  0.26824759  0.95671106  0.69980677     0.08200
C1228       C  0.27092651  0.90549401  0.77227788    -0.05600
C1229       C  0.26957041  0.90671400  0.81856412    -0.06400
C1230       C  0.24605628  0.92001191  0.83978218    -0.16000
C1231       C  0.22277017  0.93206317  0.81431348    -0.01500
C1232       C  0.22355124  0.92966057  0.76799534    -0.09100
C1233       C  0.29807475  0.89374773  0.75059011     0.65200
H1234       H  0.28729598  0.89800509  0.83872912     0.10600
C1235       C  0.19717491  0.94713275  0.83588966     0.63600
H1236       H  0.20599855  0.93858580  0.74771272     0.08000
F1237       F  0.28731994  0.98512425  0.64592872    -0.19500
F1238       F  0.25384893  0.98438849  0.59132607    -0.15700
F1239       F  0.29587139  0.95882870  0.58460519    -0.19200
F1240       F  0.19575791  0.88087227  0.71426978    -0.22600
F1241       F  0.23726748  0.85465059  0.71968191    -0.24100
F1242       F  0.20859280  0.85047818  0.65918702    -0.18000
F1243       F  0.20614812  0.97163132  0.85883854    -0.20500
F1244       F  0.18500438  0.92876617  0.86469558    -0.21700
F1245       F  0.17605669  0.95546700  0.80510005    -0.18900
F1246       F  0.31824438  0.88329040  0.78126819    -0.19000
F1247       F  0.31050059  0.91553112  0.72825996    -0.22800
F1248       F  0.29154551  0.87148156  0.72103370    -0.24400
C1249       C  0.22922336  0.90278955  0.17480425    -0.11200
C1250       C  0.25000484  0.91893300  0.19820657     0.11400
C1251       C  0.27046544  0.93413326  0.17513377    -0.03000
C1252       C  0.26865815  0.93351702  0.12873409    -0.05700
C1253       C  0.24789558  0.91730478  0.10517012    -0.16500
C1254       C  0.22774953  0.90163730  0.12840605     0.02400
C1255       C  0.25035324  0.91866381  0.24704259     0.12300
C1256       C  0.29452348  0.95020235  0.19945006     0.63000
H1257       H  0.28399389  0.94510634  0.11034691     0.12400
C1258       C  0.20428203  0.88449549  0.10456409     0.55100
H1259       H  0.21418261  0.89097356  0.19340837     0.08200
C1260       C  0.23178301  0.93692833  0.27216173    -0.05600
C1261       C  0.23353767  0.93544391  0.31837893    -0.06400
C1262       C  0.25292058  0.91619830  0.33983502    -0.16000
C1263       C  0.27158436  0.89798116  0.31456172    -0.01500
C1264       C  0.26962039  0.89934148  0.26831218    -0.09100
C1265       C  0.21018730  0.95776629  0.25026757     0.65200
H1266       H  0.21942565  0.94911398  0.33826442     0.10600
C1267       C  0.29432124  0.87815416  0.33602265     0.63600
H1268       H  0.28332559  0.88542906  0.24814369     0.08000
F1269       F  0.18534845  0.87345671  0.13364745    -0.19500
F1270       F  0.21649003  0.86152794  0.08103813    -0.15700
F1271       F  0.18856101  0.90212464  0.07597617    -0.19200
F1272       F  0.31276489  0.93070390  0.22103610    -0.22600
F1273       F  0.28320912  0.96970342  0.23006262    -0.24100
F1274       F  0.31073357  0.96532957  0.17094456    -0.18000
F1275       F  0.28128329  0.85643884  0.35762140    -0.20500
F1276       F  0.31120719  0.89387758  0.36586725    -0.21700
F1277       F  0.31232482  0.86523517  0.30526306    -0.18900
F1278       F  0.19500764  0.97424368  0.28097560    -0.19000
F1279       F  0.19053609  0.94253894  0.22429818    -0.22800
F1280       F  0.22431812  0.97637818  0.22415346    -0.24400
O1281       O  0.74401118  0.44659091  0.90513267    -0.73800
O1282       O  0.74747994  0.44389266  0.03142159    -0.73800
O1283       O  0.78752192  0.44521151  0.96869381    -0.73800
O1284       O  0.70441572  0.44488360  0.96883103    -0.73900
O1285       O  0.70629899  0.39703409  0.96485280    -0.73800
O1286       O  0.78901969  0.39733044  0.96275630    -0.73800
O1287       O  0.74947606  0.39580711  0.02684545    -0.73800
O1288       O  0.74546336  0.39848431  0.90077121    -0.73800
Ni1289     Ni  0.74586336  0.44687603  0.96853860     1.25400
Ni1290     Ni  0.74766784  0.39549921  0.96359868     1.25400
C1291       C  0.74358352  0.42295908  0.88218962     0.88400
C1292       C  0.74856039  0.41936536  0.04990632     0.88400
C1293       C  0.80217165  0.42127217  0.96626622     0.88400
C1294       C  0.69144095  0.42077913  0.96710732     0.88600
O1295       O  0.74565780  0.44563491  0.40353624    -0.73800
O1296       O  0.74235337  0.44695855  0.52962804    -0.73800
O1297       O  0.78542343  0.44700947  0.47194395    -0.73800
O1298       O  0.70267530  0.44541890  0.46260808    -0.73900
O1299       O  0.70509152  0.39754401  0.46233267    -0.73800
O1300       O  0.78800053  0.39916166  0.46958953    -0.73800
O1301       O  0.74510351  0.39885803  0.52901957    -0.73800
O1302       O  0.74788291  0.39752231  0.40275622    -0.73800
Ni1303     Ni  0.74395673  0.44793993  0.46675582     1.25400
Ni1304     Ni  0.74659814  0.39656305  0.46579469     1.25400
C1305       C  0.74756579  0.42134620  0.38239324     0.88400
C1306       C  0.74325000  0.42317156  0.55009287     0.88400
C1307       C  0.80061504  0.42344528  0.47273671     0.88400
C1308       C  0.68998297  0.42121497  0.46223130     0.88600
O1309       O  0.88456158  0.21740553  0.98640126    -0.73800
O1310       O  0.88575220  0.30000139  0.97842861    -0.73800
O1311       O  0.88663080  0.25493686  0.91960366    -0.73800
O1312       O  0.88378438  0.26254836  0.04579520    -0.73900
O1313       O  0.93181471  0.26025771  0.05077609    -0.73800
O1314       O  0.93462284  0.25353120  0.92506696    -0.73800
O1315       O  0.93347744  0.29810427  0.98552692    -0.73800
O1316       O  0.93246008  0.21531596  0.99179855    -0.73800
Ni1317     Ni  0.88346797  0.25876579  0.98239171     1.25400
Ni1318     Ni  0.93478122  0.25667547  0.98829782     1.25400
C1319       C  0.90823510  0.20262810  0.99103207     0.88400
C1320       C  0.90981188  0.31292580  0.98122156     0.88400
C1321       C  0.91119876  0.25358424  0.90153936     0.88400
C1322       C  0.90742026  0.26291810  0.06895407     0.88600
O1323       O  0.93159762  0.25700139  0.54917923    -0.73800
O1324       O  0.93031514  0.26161081  0.42320959    -0.73800
O1325       O  0.93125949  0.30046110  0.49166703    -0.73800
O1326       O  0.93077245  0.21825292  0.48165354    -0.73900
O1327       O  0.88307051  0.21897834  0.48194275    -0.73800
O1328       O  0.88352252  0.30246946  0.48664826    -0.73800
O1329       O  0.88243272  0.26149387  0.42167100    -0.73800
O1330       O  0.88363364  0.25995333  0.54803259    -0.73800
Ni1331     Ni  0.93262184  0.25928544  0.48642134     1.25400
Ni1332     Ni  0.88140112  0.26080855  0.48464131     1.25400
C1333       C  0.90784863  0.25731226  0.56937006     0.88400
C1334       C  0.90611157  0.26246802  0.40149919     0.88400
C1335       C  0.90765966  0.31538731  0.48939112     0.88400
C1336       C  0.90717083  0.20465582  0.48032518     0.88600
O1337       O  0.74718816  0.07418850  0.08509826    -0.73800
O1338       O  0.75031001  0.07935148  0.95957307    -0.73800
O1339       O  0.78974128  0.07786667  0.02672321    -0.73800
O1340       O  0.70793223  0.07571922  0.01705052    -0.73900
O1341       O  0.70497334  0.12346430  0.02558910    -0.73800
O1342       O  0.78796291  0.12564080  0.03271810    -0.73800
O1343       O  0.74734712  0.12735091  0.96589277    -0.73800
O1344       O  0.74567955  0.12222945  0.09168061    -0.73800
Ni1345     Ni  0.74890776  0.07513427  0.02195201     1.25400
Ni1346     Ni  0.74636114  0.12643872  0.02912867     1.25400
C1347       C  0.74596232  0.09736635  0.10907934     0.88400
C1348       C  0.74934069  0.10417527  0.94200863     0.88400
C1349       C  0.80271520  0.10177262  0.03165452     0.88400
C1350       C  0.69271185  0.09906115  0.02032300     0.88600
O1351       O  0.75702570  0.07222391  0.58862407    -0.73800
O1352       O  0.75489187  0.07020814  0.46195068    -0.73800
O1353       O  0.79725320  0.07214312  0.52459176    -0.73800
O1354       O  0.71447335  0.07029260  0.52387220    -0.73900
O1355       O  0.71204224  0.11819639  0.52543616    -0.73800
O1356       O  0.79450674  0.12008612  0.52660562    -0.73800
O1357       O  0.75224328  0.11829840  0.46258770    -0.73800
O1358       O  0.75412841  0.12028295  0.58893734    -0.73800
Ni1359     Ni  0.75600079  0.06948792  0.52503317     1.25400
Ni1360     Ni  0.75316505  0.12088744  0.52595262     1.25400
C1361       C  0.75591165  0.09661025  0.60969101     0.88400
C1362       C  0.75340720  0.09396649  0.44142309     0.88400
C1363       C  0.80960558  0.09650351  0.52407549     0.88400
C1364       C  0.69941193  0.09396113  0.52351155     0.88600
O1365       O  0.56372899  0.26147832  0.07670970    -0.73800
O1366       O  0.56585923  0.26116399  0.95091163    -0.73800
O1367       O  0.56270095  0.22015988  0.01133124    -0.73800
O1368       O  0.56729048  0.30254045  0.01494053    -0.73900
O1369       O  0.61518198  0.29893201  0.01911975    -0.73800
O1370       O  0.61043582  0.21630360  0.01768895    -0.73800
O1371       O  0.61379699  0.25663554  0.95486338    -0.73800
O1372       O  0.61169429  0.25835914  0.08121277    -0.73800
Ni1373     Ni  0.56321850  0.26149666  0.01346071     1.25400
Ni1374     Ni  0.61450935  0.25740841  0.01834102     1.25400
C1375       C  0.58728854  0.25982942  0.09978225     0.88400
C1376       C  0.59007443  0.25894743  0.93213507     0.88400
C1377       C  0.58583518  0.20445012  0.01386076     0.88400
C1378       C  0.59188898  0.31448911  0.01705900     0.88600
O1379       O  0.57038403  0.25829078  0.45178415    -0.73800
O1380       O  0.57102068  0.26009977  0.57816146    -0.73800
O1381       O  0.57110742  0.30043557  0.51492405    -0.73800
O1382       O  0.57006645  0.21771193  0.51433768    -0.73900
O1383       O  0.61791959  0.21571543  0.51832917    -0.73800
O1384       O  0.61908070  0.29883358  0.51677634    -0.73800
O1385       O  0.61898418  0.25880195  0.58029758    -0.73800
O1386       O  0.61840485  0.25567689  0.45386323    -0.73800
Ni1387     Ni  0.56897691  0.25919061  0.51480290     1.25400
Ni1388     Ni  0.62032454  0.25716496  0.51730160     1.25400
C1389       C  0.59432733  0.25672385  0.43196777     0.88400
C1390       C  0.59511018  0.25990911  0.60018662     0.88400
C1391       C  0.59511064  0.31342198  0.51571538     0.88400
C1392       C  0.59377547  0.20284683  0.51658247     0.88600
N1393       N  0.87800549  0.38850003  0.97138300    -0.35900
N1394       N  0.87728235  0.45064684  0.97474481    -0.56500
N1395       N  0.94046941  0.44973796  0.98861846    -0.35900
N1396       N  0.94123437  0.38730149  0.98446234    -0.56500
C1397       C  0.85038357  0.39564298  0.98179173     0.27600
C1398       C  0.88436510  0.36193508  0.98745315     0.27700
C1399       C  0.93437563  0.47684451  0.97520739     0.27600
C1400       C  0.96813535  0.44361251  0.97828897     0.27600
C1401       C  0.84982828  0.44635458  0.96007710     0.36300
C1402       C  0.88253684  0.47868632  0.96830313     0.36300
C1403       C  0.93640957  0.35941922  0.97253201     0.36300
C1404       C  0.96971626  0.39139786  0.97952671     0.36300
C1405       C  0.83949566  0.37377733  0.00604565    -0.21200
C1406       C  0.86085379  0.35262736  0.00967608    -0.21200
C1407       C  0.95757280  0.48734613  0.95375600    -0.21200
C1408       C  0.97892498  0.46629806  0.95559957    -0.21200
C1409       C  0.83827227  0.47146180  0.94175431    -0.22300
C1410       C  0.85902902  0.49191767  0.94696524    -0.22300
C1411       C  0.96172756  0.34635949  0.95757417    -0.22300
C1412       C  0.98262782  0.36659294  0.96172248    -0.22300
C1413       C  0.83474880  0.42098904  0.96827622    -0.17600
C1414       C  0.91018131  0.34542865  0.97967786    -0.17600
C1415       C  0.98370260  0.41786070  0.98843355    -0.17600
C1416       C  0.90830396  0.49229221  0.98218753    -0.17600
H1417       H  0.81861155  0.37323615  0.02071683     0.15300
H1418       H  0.85923415  0.33293715  0.02761400     0.15300
H1419       H  0.95372455  0.00660234  0.94863725     0.15300
H1420       H  0.49857663  0.46363906  0.95025331     0.15300
H1421       H  0.81721437  0.47500555  0.92622344     0.13600
H1422       H  0.85692572  0.01325575  0.94912973     0.13600
H1423       H  0.96522959  0.32473031  0.94431096     0.13600
H1424       H  0.50431326  0.36259927  0.96692293     0.13600
H1425       H  0.89083229  0.39977946  0.95056771     0.26800
H1426       H  0.92747792  0.43749448  0.00783247     0.26800
N1427       N  0.87684958  0.39164212  0.48131669    -0.35900
N1428       N  0.87564464  0.45379542  0.48581109    -0.56500
N1429       N  0.95332969  0.46329004  0.50210736    -0.35900
N1430       N  0.94127204  0.38872966  0.49452227    -0.56500
C1431       C  0.84892353  0.39858995  0.49064155     0.27600
C1432       C  0.88293658  0.36479695  0.49681404     0.27700
C1433       C  0.93168240  0.47463833  0.47631030     0.27600
C1434       C  0.96594232  0.44209099  0.47702996     0.27600
C1435       C  0.84783996  0.45035943  0.47271014     0.36300
C1436       C  0.88130713  0.48208330  0.48206904     0.36300
C1437       C  0.93534269  0.36125503  0.48185026     0.36300
C1438       C  0.96983747  0.39210987  0.48822621     0.36300
C1439       C  0.83771878  0.37636701  0.51381082    -0.21200
C1440       C  0.85902851  0.35524960  0.51777207    -0.21200
C1441       C  0.93100438  0.46108704  0.43501313    -0.21200
C1442       C  0.95268042  0.44060336  0.43541619    -0.21200
C1443       C  0.83613020  0.47679906  0.45889090    -0.22300
C1444       C  0.85727433  0.49688359  0.46531212    -0.22300
C1445       C  0.96012005  0.34777318  0.46530305    -0.22300
C1446       C  0.98186346  0.36721520  0.46959004    -0.22300
C1447       C  0.83315644  0.42411680  0.47756941    -0.17600
C1448       C  0.90862055  0.34794058  0.48909882    -0.17600
C1449       C  0.98332851  0.41915317  0.49291400    -0.17600
C1450       C  0.90914648  0.49311919  0.49045001    -0.17600
H1451       H  0.81665153  0.37559540  0.52782680     0.15300
H1452       H  0.85705882  0.33537112  0.53510350     0.15300
H1453       H  0.91840620  0.96355329  0.40032311     0.15300
H1454       H  0.47058424  0.41952468  0.43497678     0.15300
H1455       H  0.81496540  0.48165851  0.44472479     0.13600
H1456       H  0.85834910  0.01687155  0.44630699     0.13600
H1457       H  0.96249139  0.32657539  0.44987457     0.13600
H1458       H  0.50499655  0.36243557  0.48164679     0.13600
H1459       H  0.89010431  0.40322338  0.46154666     0.26800
H1460       H  0.95697690  0.46735833  0.53584508     0.26800
N1461       N  0.87601435  0.13017413  0.01110296    -0.35900
N1462       N  0.87669350  0.06798150  0.01974800    -0.56500
N1463       N  0.93905967  0.06417519  0.00535213    -0.35900
N1464       N  0.93821562  0.12714744  0.00458115    -0.56500
C1465       C  0.85024512  0.12732337  0.03005037     0.27600
C1466       C  0.88294948  0.15837493  0.01510472     0.27700
C1467       C  0.93277237  0.03777943  0.01925814     0.27600
C1468       C  0.96596569  0.07030525  0.02124613     0.27600
C1469       C  0.85006731  0.07391915  0.03503250     0.36300
C1470       C  0.88135431  0.03915616  0.02345188     0.36300
C1471       C  0.93169817  0.15272367  0.98564668     0.36300
C1472       C  0.96453382  0.11840266  0.99059929     0.36300
C1473       C  0.84095736  0.15401559  0.04696403    -0.21200
C1474       C  0.86158222  0.17350534  0.03779995    -0.21200
C1475       C  0.95525805  0.02705197  0.04554687    -0.21200
C1476       C  0.97612998  0.04753548  0.04713746    -0.21200
C1477       C  0.83917846  0.04912758  0.05220670    -0.22300
C1478       C  0.85891859  0.02720391  0.04475242    -0.22300
C1479       C  0.95362665  0.15984698  0.95835627    -0.22300
C1480       C  0.97433013  0.13796448  0.96122716    -0.22300
C1481       C  0.83520637  0.10119090  0.03287357    -0.17600
C1482       C  0.90746634  0.17052943  0.99666561    -0.17600
C1483       C  0.98093514  0.09543448  0.01000184    -0.17600
C1484       C  0.90651042  0.02388798  0.01016960    -0.17600
H1485       H  0.82207327  0.15895947  0.06599532     0.15300
H1486       H  0.86103222  0.19606196  0.04798411     0.15300
H1487       H  0.95614680  0.00692479  0.06287320     0.15300
H1488       H  0.49505015  0.04612497  0.06298987     0.15300
H1489       H  0.81963121  0.04695003  0.07006221     0.13600
H1490       H  0.85735739  0.00521851  0.05534058     0.13600
H1491       H  0.95481316  0.17887436  0.93872483     0.13600
H1492       H  0.49281019  0.13910622  0.94147535     0.13600
H1493       H  0.88686918  0.11448231  0.99223943     0.26800
H1494       H  0.92629790  0.07614736  0.98308374     0.26800
N1495       N  0.88097192  0.13033959  0.50362065    -0.35900
N1496       N  0.88462813  0.06726012  0.50609475    -0.56500
N1497       N  0.94658095  0.06670612  0.50075632    -0.35900
N1498       N  0.94211972  0.13043124  0.49089834    -0.56500
C1499       C  0.85301367  0.12267698  0.49991218     0.27600
C1500       C  0.88291864  0.15637027  0.48453845     0.27700
C1501       C  0.94023419  0.04033239  0.48288706     0.27600
C1502       C  0.97217809  0.07404906  0.48540467     0.27600
C1503       C  0.85952242  0.07286620  0.52648408     0.36300
C1504       C  0.89301050  0.03981481  0.51557523     0.36300
C1505       C  0.93579963  0.15740852  0.47679056     0.36300
C1506       C  0.97061674  0.12562452  0.48480570     0.36300
C1507       C  0.83725204  0.14377394  0.47710526    -0.21200
C1508       C  0.85597961  0.16501855  0.46785969    -0.21200
C1509       C  0.96198811  0.03152170  0.45455597    -0.21200
C1510       C  0.98216630  0.05275249  0.45642541    -0.21200
C1511       C  0.85248142  0.04910398  0.55041989    -0.22300
C1512       C  0.87367854  0.02819020  0.54344160    -0.22300
C1513       C  0.95992735  0.16845307  0.45805758    -0.22300
C1514       C  0.98184110  0.14833174  0.46308541    -0.22300
C1515       C  0.84156757  0.09762364  0.51821446    -0.17600
C1516       C  0.90851752  0.17200106  0.48028399    -0.17600
C1517       C  0.98610810  0.10010312  0.49618195    -0.17600
C1518       C  0.91570668  0.02455845  0.49396542    -0.17600
H1519       H  0.81481949  0.14365814  0.46634160     0.15300
H1520       H  0.85046058  0.18377255  0.44855505     0.15300
H1521       H  0.96337143  0.01252571  0.43333905     0.15300
H1522       H  0.50130519  0.05308828  0.44279611     0.15300
H1523       H  0.83383499  0.04664581  0.57021859     0.13600
H1524       H  0.87436223  0.00663253  0.55634331     0.13600
H1525       H  0.96161406  0.18816010  0.44024043     0.13600
H1526       H  0.50176392  0.14799863  0.45625093     0.13600
H1527       H  0.89707102  0.11957313  0.52204968     0.26800
H1528       H  0.93541929  0.07837447  0.52503241     0.26800
N1529       N  0.61648184  0.12889795  0.01701216    -0.35900
N1530       N  0.55332915  0.13059509  0.00983743    -0.56500
N1531       N  0.54289335  0.05425637  0.00495104    -0.35900
N1532       N  0.61926075  0.06655677  0.01632835    -0.56500
C1533       C  0.60947571  0.15547671  0.00155955     0.27600
C1534       C  0.64383940  0.12224445  0.00489875     0.27700
C1535       C  0.53094870  0.07627700  0.02921535     0.27600
C1536       C  0.56483929  0.04329869  0.03060452     0.27600
C1537       C  0.55817522  0.15852314  0.02071227     0.36300
C1538       C  0.52527844  0.12617888  0.01756608     0.36300
C1539       C  0.64707021  0.07141769  0.02731274     0.36300
C1540       C  0.61511943  0.03830901  0.02295622     0.36300
C1541       C  0.63208226  0.16508620  0.97759677    -0.21200
C1542       C  0.65373695  0.14421572  0.97983204    -0.21200
C1543       C  0.54469844  0.07856465  0.07036001    -0.21200
C1544       C  0.56606875  0.05778630  0.07124064    -0.21200
C1545       C  0.53318473  0.17153938  0.03715946    -0.22300
C1546       C  0.51244582  0.15095895  0.03540703    -0.22300
C1547       C  0.66023793  0.04608836  0.04302830    -0.22300
C1548       C  0.63995347  0.02503490  0.03979376    -0.22300
C1549       C  0.58435826  0.17214560  0.01241862    -0.17600
C1550       C  0.66052511  0.09764354  0.01838247    -0.17600
C1551       C  0.58804935  0.02581774  0.01583844    -0.17600
C1552       C  0.51297232  0.09866214  0.01285565    -0.17600
H1553       H  0.63299653  0.18505683  0.96012493     0.15300
H1554       H  0.67434216  0.14512921  0.96436442     0.15300
H1555       H  0.04012043  0.09276128  0.10191119     0.15300
H1556       H  0.58224726  0.05491251  0.09743098     0.15300
H1557       H  0.52991845  0.19324396  0.05027201     0.13600
H1558       H  0.99056940  0.15423103  0.05120449     0.13600
H1559       H  0.68199196  0.04261173  0.05584163     0.13600
H1560       H  0.64285389  0.00288601  0.04987379     0.13600
H1561       H  0.60458238  0.11755435  0.03902507     0.26800
H1562       H  0.53884926  0.04959478  0.97146265     0.26800
N1563       N  0.62439538  0.12656502  0.52008985    -0.35900
N1564       N  0.56157659  0.12903759  0.51303903    -0.56500
N1565       N  0.56115925  0.06622339  0.50436077    -0.35900
N1566       N  0.62438326  0.06419210  0.51194763    -0.56500
C1567       C  0.61832213  0.15370290  0.50622556     0.27600
C1568       C  0.65145763  0.11920309  0.50762213     0.27700
C1569       C  0.53434108  0.07260183  0.51847220     0.27600
C1570       C  0.56712466  0.03847635  0.51477087     0.27600
C1571       C  0.56753632  0.15633362  0.52691393     0.36300
C1572       C  0.53380457  0.12469938  0.52266979     0.36300
C1573       C  0.65187646  0.06811692  0.52681632     0.36300
C1574       C  0.61898849  0.03604633  0.51731386     0.36300
C1575       C  0.64145363  0.16321633  0.48336734    -0.21200
C1576       C  0.66222353  0.14144800  0.48400697    -0.21200
C1577       C  0.52409600  0.04942186  0.54055265    -0.21200
C1578       C  0.54480312  0.02779657  0.53808503    -0.21200
C1579       C  0.54389508  0.16878646  0.54777103    -0.22300
C1580       C  0.52269478  0.14864879  0.54550660    -0.22300
C1581       C  0.66329877  0.04263471  0.54407879    -0.22300
C1582       C  0.64246370  0.02237253  0.53801259    -0.22300
C1583       C  0.59323907  0.17036069  0.51701021    -0.17600
C1584       C  0.66698168  0.09370306  0.52014173    -0.17600
C1585       C  0.59270580  0.02290091  0.50486119    -0.17600
C1586       C  0.51893357  0.09890834  0.51201415    -0.17600
H1587       H  0.64345906  0.18358954  0.46753397     0.15300
H1588       H  0.68275498  0.14203197  0.46827190     0.15300
H1589       H  0.00371453  0.05044298  0.55259186     0.15300
H1590       H  0.54386301  0.00688428  0.55287655     0.15300
H1591       H  0.54205796  0.18988958  0.56375512     0.13600
H1592       H  0.99899607  0.15063493  0.55546568     0.13600
H1593       H  0.68418081  0.03870118  0.55991562     0.13600
H1594       H  0.64421138  0.00023143  0.54845760     0.13600
H1595       H  0.61207036  0.11498963  0.54124350     0.26800
H1596       H  0.57349444  0.07896715  0.48489280     0.26800
N1597       N  0.62178759  0.38889940  0.99965247    -0.35900
N1598       N  0.61693616  0.45133544  0.99003925    -0.56500
N1599       N  0.55536002  0.45193810  0.00231875    -0.35900
N1600       N  0.56052343  0.38873188  0.01273908    -0.56500
C1601       C  0.64581779  0.39323935  0.97675547     0.27600
C1602       C  0.61616835  0.36028265  0.99618445     0.27700
C1603       C  0.56194251  0.47863189  0.01845810     0.27600
C1604       C  0.53000501  0.44506036  0.01911721     0.27600
C1605       C  0.64257445  0.44663247  0.97066845     0.36300
C1606       C  0.60876215  0.47922287  0.98297831     0.36300
C1607       C  0.56878196  0.36323694  0.03028389     0.36300
C1608       C  0.53339012  0.39432116  0.02570303     0.36300
C1609       C  0.65521556  0.36702998  0.95810134    -0.21200
C1610       C  0.63662832  0.34637250  0.97030985    -0.21200
C1611       C  0.54054221  0.48806818  0.04715631    -0.21200
C1612       C  0.52028115  0.46702125  0.04700223    -0.21200
C1613       C  0.64995103  0.47130551  0.94927726    -0.22300
C1614       C  0.62842788  0.49171515  0.95656826    -0.22300
C1615       C  0.54747425  0.35368276  0.05693975    -0.22300
C1616       C  0.52499257  0.37354952  0.05412115    -0.22300
C1617       C  0.65910180  0.42024065  0.97142753    -0.17600
C1618       C  0.59299762  0.34676525  0.01615141    -0.17600
C1619       C  0.51662376  0.41838061  0.01213860    -0.17600
C1620       C  0.58624082  0.49421962  0.00571635    -0.17600
H1621       H  0.67257758  0.36311095  0.93563738     0.15300
H1622       H  0.63760749  0.32393785  0.95951623     0.15300
H1623       H  0.54058730  0.00404190  0.06855047     0.15300
H1624       H  0.00047331  0.46527041  0.05658768     0.15300
H1625       H  0.66839375  0.47430275  0.92928754     0.13600
H1626       H  0.62695869  0.01497036  0.94252766     0.13600
H1627       H  0.54778137  0.33415915  0.07571837     0.13600
H1628       H  0.00046399  0.37467954  0.05660465     0.13600
H1629       H  0.61118346  0.40408264  0.01978394     0.26800
H1630       H  0.56623281  0.43958286  0.97848967     0.26800
N1631       N  0.62169433  0.38856532  0.49620458    -0.35900
N1632       N  0.56188648  0.38788276  0.52001219    -0.56500
N1633       N  0.55599687  0.45096127  0.51356113    -0.35900
N1634       N  0.61676885  0.45096847  0.49220191    -0.56500
C1635       C  0.61627934  0.35998410  0.49217394     0.27600
C1636       C  0.64461004  0.39354734  0.47123821     0.27700
C1637       C  0.53056757  0.44462305  0.53094612     0.27600
C1638       C  0.56297848  0.47780507  0.52867819     0.27600
C1639       C  0.57124199  0.36152365  0.53343357     0.36300
C1640       C  0.53609731  0.39318138  0.53846413     0.36300
C1641       C  0.64136108  0.44704395  0.46975651     0.36300
C1642       C  0.60877037  0.47921722  0.48935500     0.36300
C1643       C  0.63567711  0.34674836  0.46367629    -0.21200
C1644       C  0.65351630  0.36785173  0.45057665    -0.21200
C1645       C  0.52110429  0.46723596  0.55768331    -0.21200
C1646       C  0.54173052  0.48783967  0.55720502    -0.21200
C1647       C  0.55202706  0.35086388  0.56260482    -0.22300
C1648       C  0.52976476  0.37099664  0.56583373    -0.22300
C1649       C  0.64815821  0.47270300  0.45059910    -0.22300
C1650       C  0.62742688  0.49292554  0.46265568    -0.22300
C1651       C  0.59474005  0.34577217  0.51482770    -0.17600
C1652       C  0.65770712  0.42061986  0.46668267    -0.17600
C1653       C  0.58737460  0.49325343  0.51549560    -0.17600
C1654       C  0.51789686  0.41736159  0.52890587    -0.17600
H1655       H  0.63661105  0.32439826  0.45239709     0.15300
H1656       H  0.67035187  0.36466494  0.42697183     0.15300
H1657       H  0.00199452  0.46997924  0.43906289     0.15300
H1658       H  0.54353919  0.00717077  0.43772669     0.15300
H1659       H  0.55355472  0.33051341  0.57928503     0.13600
H1660       H  0.00311532  0.37911432  0.56349933     0.13600
H1661       H  0.66566116  0.47651436  0.42907638     0.13600
H1662       H  0.63768190  0.01052472  0.44126916     0.13600
H1663       H  0.61214813  0.40311881  0.51848044     0.26800
H1664       H  0.56680427  0.43800802  0.49043719     0.26800
C1665       C  0.61529428  0.27068927  0.72271893    -0.11200
C1666       C  0.59265476  0.25682255  0.74188696     0.11400
C1667       C  0.56995513  0.24568024  0.71485238    -0.03000
C1668       C  0.57195116  0.24683040  0.66881074    -0.05700
C1669       C  0.59505063  0.25998809  0.64920659    -0.16500
C1670       C  0.61670362  0.27307474  0.67671686     0.02400
C1671       C  0.59229532  0.25651035  0.79068756     0.12300
C1672       C  0.54350802  0.23317462  0.73451200     0.63000
H1673       H  0.55525792  0.23746001  0.64764750     0.12400
C1674       C  0.64041713  0.29069444  0.65833852     0.55100
H1675       H  0.63175591  0.28001030  0.74441311     0.08200
C1676       C  0.60818199  0.23566262  0.81553401    -0.05600
C1677       C  0.60715306  0.23736810  0.86186429    -0.06400
C1678       C  0.59052544  0.25891005  0.88348371    -0.16000
C1679       C  0.57486700  0.27991546  0.85844856    -0.01500
C1680       C  0.57648168  0.27854143  0.81230600    -0.09100
C1681       C  0.62621260  0.21193409  0.79318139     0.65200
H1682       H  0.61906655  0.22164900  0.88163580     0.10600
C1683       C  0.55681551  0.30393439  0.88011225     0.63600
H1684       H  0.56502134  0.29450872  0.79242940     0.08000
F1685       F  0.65986416  0.27271628  0.63650809    -0.19500
F1686       F  0.65552832  0.30564358  0.69137879    -0.15700
F1687       F  0.62852470  0.31077453  0.62955412    -0.19200
F1688       F  0.52943364  0.25414520  0.75976976    -0.22600
F1689       F  0.55156018  0.21023805  0.76080155    -0.24100
F1690       F  0.52411073  0.22339113  0.70219508    -0.18000
F1691       F  0.57300772  0.31794760  0.91280295    -0.20500
F1692       F  0.53291957  0.29247157  0.89830093    -0.21700
F1693       F  0.54715718  0.32431713  0.85011157    -0.18900
F1694       F  0.63864670  0.19300586  0.82333379    -0.19000
F1695       F  0.64808066  0.22399181  0.77071665    -0.22800
F1696       F  0.60917645  0.19620203  0.76363753    -0.24400
C1697       C  0.56831182  0.24570787  0.21852281    -0.11200
C1698       C  0.58910660  0.26195700  0.24170179     0.11400
C1699       C  0.60971092  0.27678579  0.21843627    -0.03000
C1700       C  0.60768350  0.27621601  0.17209699    -0.05700
C1701       C  0.58668660  0.26021690  0.14861297    -0.16500
C1702       C  0.56707603  0.24398887  0.17212438     0.02400
C1703       C  0.59009656  0.26116329  0.29048493     0.12300
C1704       C  0.63435113  0.29214320  0.24245404     0.63000
H1705       H  0.62293418  0.28789684  0.15369825     0.12400
C1706       C  0.54641867  0.22334611  0.14878817     0.55100
H1707       H  0.55346405  0.23377482  0.23731491     0.08200
C1708       C  0.57309625  0.28025193  0.31673383    -0.05600
C1709       C  0.57548451  0.27820387  0.36288781    -0.06400
C1710       C  0.59378939  0.25741084  0.38315336    -0.16000
C1711       C  0.60996760  0.23759739  0.35655524    -0.01500
C1712       C  0.60788167  0.24000129  0.31045819    -0.09100
C1713       C  0.55214322  0.30218897  0.29599130     0.65200
H1714       H  0.56293287  0.29285362  0.38366038     0.10600
C1715       C  0.62802966  0.21305434  0.37629761     0.63600
H1716       H  0.62002532  0.22520780  0.28934375     0.08000
F1717       F  0.52571639  0.23854508  0.12436185    -0.19500
F1718       F  0.53232576  0.20690427  0.17828509    -0.15700
F1719       F  0.56166389  0.20462030  0.12124520    -0.19200
F1720       F  0.65165454  0.27223825  0.26486032    -0.22600
F1721       F  0.62374520  0.31252843  0.27232627    -0.24100
F1722       F  0.65137787  0.30606830  0.21361600    -0.18000
F1723       F  0.63957081  0.19477858  0.34410271    -0.20500
F1724       F  0.61091321  0.19691786  0.40202990    -0.21700
F1725       F  0.65066728  0.22389834  0.40176900    -0.18900
F1726       F  0.53838996  0.31926486  0.32754539    -0.19000
F1727       F  0.53131146  0.28797477  0.27085426    -0.22800
F1728       F  0.56656356  0.32014615  0.26922088    -0.24400
C1729       C  0.76776227  0.12331270  0.82491329    -0.11200
C1730       C  0.75093238  0.10362189  0.80023900     0.11400
C1731       C  0.73389349  0.08407495  0.82216577    -0.03000
C1732       C  0.73351995  0.08561192  0.86846663    -0.05700
C1733       C  0.74999068  0.10555385  0.89332690    -0.16500
C1734       C  0.76773654  0.12459023  0.87138911     0.02400
C1735       C  0.75258006  0.10298378  0.75142211     0.12300
C1736       C  0.71678573  0.06120496  0.79680162     0.63000
H1737       H  0.72047851  0.07092954  0.88581202     0.12400
C1738       C  0.78732813  0.14535981  0.89673493     0.55100
H1739       H  0.78108047  0.13759710  0.80730506     0.08200
C1740       C  0.73488200  0.12120871  0.72461568    -0.05600
C1741       C  0.73629286  0.11788178  0.67848429    -0.06400
C1742       C  0.75567664  0.09795936  0.65863348    -0.16000
C1743       C  0.77503629  0.08142281  0.68572557    -0.01500
C1744       C  0.77269729  0.08386282  0.73186267    -0.09100
C1745       C  0.71523857  0.14453870  0.74468541     0.65200
H1746       H  0.72229810  0.13104859  0.65739801     0.10600
C1747       C  0.79918098  0.06275239  0.66638223     0.63600
H1748       H  0.78671348  0.07093539  0.75326836     0.08000
F1749       F  0.80569090  0.15870372  0.86918594    -0.19500
F1750       F  0.80413072  0.13060347  0.92775149    -0.15700
F1751       F  0.77088124  0.16662549  0.91774925    -0.19200
F1752       F  0.73541528  0.04260979  0.77445029    -0.22600
F1753       F  0.69775207  0.07404473  0.76676100    -0.24100
F1754       F  0.70101527  0.04498726  0.82449426    -0.18000
F1755       F  0.81518497  0.07919469  0.63938855    -0.20500
F1756       F  0.78794143  0.03976805  0.64218515    -0.21700
F1757       F  0.81767274  0.05167844  0.69889918    -0.18900
F1758       F  0.69988484  0.15986608  0.71266047    -0.19000
F1759       F  0.73161518  0.16384969  0.76952983    -0.22800
F1760       F  0.69569982  0.13242436  0.77154948    -0.24400
C1761       C  0.76845808  0.07681107  0.32061429    -0.11200
C1762       C  0.74790518  0.09497075  0.29964435     0.11400
C1763       C  0.72877221  0.11234323  0.32518758    -0.03000
C1764       C  0.73140193  0.11135821  0.37146337    -0.05700
C1765       C  0.75223454  0.09345990  0.39258593    -0.16500
C1766       C  0.77137859  0.07605285  0.36687288     0.02400
C1767       C  0.74759877  0.09583172  0.25076551     0.12300
C1768       C  0.70572434  0.13177179  0.30364756     0.63000
H1769       H  0.71693800  0.12440713  0.39166430     0.12400
C1770       C  0.79568027  0.05786875  0.38784529     0.55100
H1771       H  0.78261088  0.06356003  0.30019383     0.08200
C1772       C  0.76752864  0.11222560  0.22847714    -0.05600
C1773       C  0.76601285  0.11219759  0.18213228    -0.06400
C1774       C  0.74586452  0.09577762  0.15769676    -0.16000
C1775       C  0.72604115  0.07918350  0.18000672    -0.01500
C1776       C  0.72739899  0.07940649  0.22646266    -0.09100
C1777       C  0.79056315  0.12931034  0.25352511     0.65200
H1778       H  0.78102329  0.12462670  0.16441210     0.10600
C1779       C  0.70297648  0.06219053  0.15504246     0.63600
H1780       H  0.71268384  0.06672714  0.24433027     0.08000
F1781       F  0.81402013  0.04604325  0.35662974    -0.19500
F1782       F  0.78450684  0.03540077  0.41019853    -0.15700
F1783       F  0.81186963  0.07484976  0.41692719    -0.19200
F1784       F  0.68659917  0.11519908  0.27879055    -0.22600
F1785       F  0.71828422  0.15091801  0.27650446    -0.24100
F1786       F  0.69019611  0.14767019  0.33459862    -0.18000
F1787       F  0.71567030  0.03974567  0.13096450    -0.20500
F1788       F  0.68738305  0.08019470  0.12683814    -0.21700
F1789       F  0.68385817  0.05050316  0.18319193    -0.18900
F1790       F  0.80639264  0.14528006  0.22558956    -0.19000
F1791       F  0.80943785  0.11061981  0.27553426    -0.22800
F1792       F  0.77799505  0.14821775  0.28380346    -0.24400
C1793       C  0.92715135  0.27014356  0.78271974    -0.11200
C1794       C  0.90931978  0.25066088  0.75966494     0.11400
C1795       C  0.89371040  0.23065464  0.78306380    -0.03000
C1796       C  0.89500473  0.23222148  0.82951663    -0.05700
C1797       C  0.91227416  0.25227514  0.85276955    -0.16500
C1798       C  0.92892459  0.27141123  0.82908077     0.02400
C1799       C  0.90763595  0.25189906  0.71083840     0.12300
C1800       C  0.87633844  0.20746198  0.75899250     0.63000
H1801       H  0.88275816  0.21753630  0.84815913     0.12400
C1802       C  0.94726763  0.29410701  0.85241610     0.55100
H1803       H  0.93932702  0.28476148  0.76384494     0.08200
C1804       C  0.88906436  0.27194545  0.68866770    -0.05600
C1805       C  0.88947645  0.27268264  0.64233552    -0.06400
C1806       C  0.90833478  0.25464911  0.61799391    -0.16000
C1807       C  0.92675901  0.23438599  0.64038064    -0.01500
C1808       C  0.92613654  0.23356669  0.68665720    -0.09100
C1809       C  0.86934141  0.29279433  0.71397714     0.65200
H1810       H  0.87553601  0.28793874  0.62474443     0.10600
C1811       C  0.94651793  0.21317993  0.61580056     0.63600
H1812       H  0.94039253  0.21875851  0.70458490     0.08000
F1813       F  0.95944242  0.31212083  0.82301454    -0.19500
F1814       F  0.96947796  0.28093366  0.87663871    -0.15700
F1815       F  0.93028150  0.31100870  0.88011615    -0.19200
F1816       F  0.89464938  0.18924219  0.73537079    -0.22600
F1817       F  0.85618940  0.21985981  0.73017132    -0.24100
F1818       F  0.86183894  0.19096520  0.78791284    -0.18000
F1819       F  0.96869014  0.22774518  0.59789136    -0.20500
F1820       F  0.93105423  0.19892672  0.58250753    -0.21700
F1821       F  0.95871798  0.19252059  0.64337901    -0.18900
F1822       F  0.85243029  0.30985448  0.68599463    -0.19000
F1823       F  0.88565056  0.31083608  0.74117871    -0.22800
F1824       F  0.85118708  0.27768202  0.73947148    -0.24400
C1825       C  0.92180057  0.28556456  0.18900498    -0.11200
C1826       C  0.90699671  0.26437235  0.21041442     0.11400
C1827       C  0.89068464  0.24404303  0.18524218    -0.03000
C1828       C  0.89079510  0.24489201  0.13896660    -0.05700
C1829       C  0.90666224  0.26521970  0.11751619    -0.16500
C1830       C  0.92205554  0.28632895  0.14266831     0.02400
C1831       C  0.90794684  0.26473030  0.25938593     0.12300
C1832       C  0.87340369  0.22145001  0.20714742     0.63000
H1833       H  0.87895516  0.22920956  0.11901477     0.12400
C1834       C  0.93789975  0.31003946  0.12081550     0.55100
H1835       H  0.93336797  0.30139516  0.20905920     0.08200
C1836       C  0.93127861  0.25228548  0.28414565    -0.05600
C1837       C  0.92975272  0.25220633  0.33039345    -0.06400
C1838       C  0.90581431  0.26417135  0.35248099    -0.16000
C1839       C  0.88294968  0.27772511  0.32738290    -0.06300
C1840       C  0.88470087  0.27787674  0.28117702    -0.09100
C1841       C  0.95755463  0.23902014  0.26180220     0.65200
H1842       H  0.94722453  0.24229317  0.34970109     0.10600
C1843       C  0.85685157  0.29228631  0.34856628     0.63600
H1844       H  0.86751305  0.28779953  0.26126895     0.08000
F1845       F  0.96102186  0.29830896  0.09822072    -0.19500
F1846       F  0.94843470  0.33016626  0.15139834    -0.15700
F1847       F  0.91931566  0.32437659  0.09166125    -0.19200
F1848       F  0.85202745  0.23480433  0.23172926    -0.22600
F1849       F  0.89129391  0.20504921  0.23457948    -0.24100
F1850       F  0.86031928  0.20295232  0.17648222    -0.18000
F1851       F  0.83963311  0.30728051  0.31826803    -0.20500
F1852       F  0.86569902  0.31182390  0.38122324    -0.21700
F1853       F  0.84011015  0.27169593  0.36645204    -0.18900
F1854       F  0.97748515  0.22754952  0.29199711    -0.19000
F1855       F  0.97102562  0.25985192  0.23889199    -0.22800
F1856       F  0.94930330  0.21707286  0.23270225    -0.24400
C1857       C  0.75817031  0.44021191  0.67189655    -0.11200
C1858       C  0.73854742  0.42248192  0.69138191     0.11400
C1859       C  0.71963719  0.40565323  0.66438056    -0.03000
C1860       C  0.72192567  0.40637249  0.61822395    -0.05700
C1861       C  0.74197631  0.42375396  0.59874990    -0.16500
C1862       C  0.76053980  0.44090425  0.62588421     0.02400
C1863       C  0.73927736  0.42148447  0.74030420     0.12300
C1864       C  0.69710730  0.38724950  0.68422205     0.63000
H1865       H  0.70780329  0.39360465  0.59684812     0.12400
C1866       C  0.78355592  0.45894839  0.60656245     0.55100
H1867       H  0.77207929  0.45317568  0.69332588     0.08200
C1868       C  0.76087784  0.40522722  0.76356589    -0.05600
C1869       C  0.76160292  0.40665138  0.80992588    -0.06400
C1870       C  0.74144425  0.42353201  0.83346219    -0.16000
C1871       C  0.71918064  0.43899694  0.81023098    -0.01500
C1872       C  0.71887472  0.43816038  0.76374487    -0.09100
C1873       C  0.78293420  0.38626626  0.73952050     0.65200
H1874       H  0.77814306  0.39465229  0.82835113     0.10600
C1875       C  0.69513409  0.45507356  0.83428271     0.63600
H1876       H  0.70264755  0.45049644  0.74522199     0.08000
F1877       F  0.80221280  0.46996582  0.63893527    -0.19500
F1878       F  0.77073795  0.48192748  0.58448488    -0.15700
F1879       F  0.79975732  0.44214857  0.57756931    -0.19200
F1880       F  0.67763840  0.40477749  0.70679855    -0.22600
F1881       F  0.71014760  0.36795432  0.71312971    -0.24100
F1882       F  0.68187502  0.37157710  0.65217129    -0.18000
F1883       F  0.70609614  0.47813341  0.85864348    -0.20500
F1884       F  0.68231946  0.43652643  0.86216154    -0.21700
F1885       F  0.67395410  0.46571651  0.80533885    -0.18900
F1886       F  0.80079925  0.37093328  0.76852231    -0.19000
F1887       F  0.80004515  0.40306249  0.71483312    -0.22800
F1888       F  0.76901700  0.36660010  0.71181233    -0.24400
C1889       C  0.73103565  0.40239134  0.16794104    -0.11200
C1890       C  0.74980325  0.42067160  0.19172382     0.11400
C1891       C  0.76888191  0.43774951  0.16890199    -0.03000
C1892       C  0.76775967  0.43663531  0.12249395    -0.05700
C1893       C  0.74882740  0.41851756  0.09861127    -0.16500
C1894       C  0.72997966  0.40113559  0.12151976     0.02400
C1895       C  0.74892965  0.42140195  0.24064223     0.12300
C1896       C  0.79054017  0.45675561  0.19345062     0.63000
H1897       H  0.78203863  0.44964101  0.10434792     0.12400
C1898       C  0.70810204  0.38220237  0.09726616     0.55100
H1899       H  0.71701610  0.38920839  0.18624661     0.08200
C1900       C  0.72729752  0.43732621  0.26352986    -0.05600
C1901       C  0.72790305  0.43704524  0.30993905    -0.06400
C1902       C  0.74893218  0.42091001  0.33370129    -0.16000
C1903       C  0.77069200  0.40514170  0.31072610    -0.01500
C1904       C  0.77010068  0.40549894  0.26434013    -0.09100
C1905       C  0.70353915  0.45424903  0.23900620     0.65200
H1906       H  0.71149831  0.44894551  0.32812385     0.10600
C1907       C  0.79486381  0.38862648  0.33492422     0.63600
H1908       H  0.78616219  0.39320805  0.24601205     0.08000
F1909       F  0.68954104  0.37014385  0.12590013    -0.19500
F1910       F  0.72218075  0.35989776  0.07473906    -0.15700
F1911       F  0.69163912  0.39848929  0.06772298    -0.19200
F1912       F  0.81049047  0.43966811  0.21636674    -0.22600
F1913       F  0.77660912  0.47526965  0.22285798    -0.24100
F1914       F  0.80534104  0.47332606  0.16498835    -0.18000
F1915       F  0.78397027  0.36489114  0.35451422    -0.20500
F1916       F  0.80762474  0.40633504  0.36695568    -0.21700
F1917       F  0.81610186  0.37890516  0.30665605    -0.18900
F1918       F  0.68599996  0.46987766  0.26762781    -0.19000
F1919       F  0.68644664  0.43547856  0.21435577    -0.22800
F1920       F  0.71540605  0.47344639  0.21117782    -0.24400
O1921       O  0.74511467  0.94202321  0.89959521    -0.73800
O1922       O  0.74336770  0.94703952  0.02582665    -0.73800
O1923       O  0.78589664  0.94398282  0.96733273    -0.73800
O1924       O  0.70288879  0.94462387  0.95952278    -0.73900
O1925       O  0.70435585  0.89683682  0.96213796    -0.73800
O1926       O  0.78715877  0.89612268  0.96798465    -0.73800
O1927       O  0.74483630  0.89896605  0.02808599    -0.73800
O1928       O  0.74618817  0.89398120  0.90164472    -0.73800
Ni1929     Ni  0.74433594  0.94611199  0.96277651     1.25400
Ni1930     Ni  0.74570713  0.89478474  0.96494072     1.25400
C1931       C  0.74535207  0.91724909  0.87976066     0.88400
C1932       C  0.74354823  0.92381643  0.04767425     0.88400
C1933       C  0.80042364  0.92002347  0.96994373     0.88400
C1934       C  0.68971608  0.92071578  0.96027817     0.88600
O1935       O  0.74950280  0.94464677  0.40400452    -0.73800
O1936       O  0.74864500  0.93965299  0.52974386    -0.73800
O1937       O  0.79016994  0.94403142  0.47084774    -0.73800
O1938       O  0.70799635  0.93985783  0.46423181    -0.73900
O1939       O  0.71094262  0.89213029  0.45799495    -0.73800
O1940       O  0.79378408  0.89626981  0.46323998    -0.73800
O1941       O  0.75228093  0.89168714  0.52380402    -0.73800
O1942       O  0.75273110  0.89669707  0.39746595    -0.73800
Ni1943     Ni  0.74891391  0.94370072  0.46725253     1.25400
Ni1944     Ni  0.75256026  0.89245957  0.46033940     1.25400
C1945       C  0.75142570  0.92154279  0.37989414     0.88400
C1946       C  0.75078741  0.91498629  0.54759764     0.88400
C1947       C  0.80575016  0.92080075  0.46866119     0.88400
C1948       C  0.69555830  0.91554647  0.46044679     0.88600
O1949       O  0.88539130  0.71639725  0.98772252    -0.73800
O1950       O  0.88487680  0.79902300  0.98501488    -0.73800
O1951       O  0.88835025  0.75538015  0.92367393    -0.73800
O1952       O  0.88229857  0.75985819  0.04995932    -0.73900
O1953       O  0.93019873  0.75829933  0.05761842    -0.73800
O1954       O  0.93624523  0.75502087  0.93210944    -0.73800
O1955       O  0.93246625  0.79800501  0.99508438    -0.73800
O1956       O  0.93324565  0.71508979  0.99566277    -0.73800
Ni1957     Ni  0.88351625  0.75768613  0.98637348     1.25400
Ni1958     Ni  0.93473106  0.75653918  0.99527245     1.25400
C1959       C  0.90927017  0.70201704  0.99222116     0.88400
C1960       C  0.90857636  0.81237701  0.98996534     0.88400
C1961       C  0.91342968  0.75476840  0.90719781     0.88400
C1962       C  0.90536278  0.76014134  0.07456725     0.88600
O1963       O  0.93803133  0.75678242  0.55185037    -0.73800
O1964       O  0.93011907  0.75777944  0.42563281    -0.73800
O1965       O  0.93521450  0.79852737  0.49104792    -0.73800
O1966       O  0.93280646  0.71636387  0.48666911    -0.73900
O1967       O  0.88529055  0.71839001  0.49212792    -0.73800
O1968       O  0.88751313  0.80127671  0.49212531    -0.73800
O1969       O  0.88232164  0.75912327  0.42984341    -0.73800
O1970       O  0.89029153  0.76048288  0.55596598    -0.73800
Ni1971     Ni  0.93571104  0.75728315  0.48865288     1.25400
Ni1972     Ni  0.88463925  0.75995319  0.49288146     1.25400
C1973       C  0.91538654  0.75808939  0.57480423     0.88400
C1974       C  0.90493119  0.75869829  0.40689405     0.88400
C1975       C  0.91176037  0.81374389  0.49080205     0.88400
C1976       C  0.90884576  0.70352587  0.48798365     0.88600
O1977       O  0.74899247  0.57838012  0.09206248    -0.73800
O1978       O  0.75248012  0.57397822  0.96596943    -0.73800
O1979       O  0.79163089  0.57680434  0.03303455    -0.73800
O1980       O  0.70972340  0.57554088  0.02391375    -0.73900
O1981       O  0.70733523  0.62342864  0.02577017    -0.73800
O1982       O  0.79049755  0.62446716  0.02901614    -0.73800
O1983       O  0.74891285  0.62198843  0.96388014    -0.73800
O1984       O  0.74907563  0.62643653  0.09046606    -0.73800
Ni1985     Ni  0.75075659  0.57453430  0.02893022     1.25400
Ni1986     Ni  0.74883865  0.62585625  0.02720371     1.25400
C1987       C  0.74868424  0.60311583  0.11204888     0.88400
C1988       C  0.75149030  0.59724030  0.94419362     0.88400
C1989       C  0.80496749  0.60048306  0.03182610     0.88400
C1990       C  0.69470449  0.59910613  0.02389896     0.88600
O1991       O  0.75494561  0.56855498  0.58697895    -0.73800
O1992       O  0.75485472  0.57517055  0.46116431    -0.73800
O1993       O  0.79616510  0.57291181  0.52528979    -0.73800
O1994       O  0.71362163  0.57083477  0.52142018    -0.73900
O1995       O  0.71110426  0.61847183  0.53147826    -0.73800
O1996       O  0.79349541  0.62077606  0.53304507    -0.73800
O1997       O  0.75152788  0.62305522  0.46891638    -0.73800
O1998       O  0.75315956  0.61652253  0.59464614    -0.73800
Ni1999     Ni  0.75497953  0.57014638  0.52359602     1.25400
Ni2000     Ni  0.75220428  0.62139731  0.53226618     1.25400
C2001       C  0.75387828  0.59150663  0.61155812     0.88400
C2002       C  0.75368208  0.60018732  0.44427939     0.88400
C2003       C  0.80851106  0.59729472  0.52829245     0.88400
C2004       C  0.69858685  0.59427818  0.52618778     0.88600
O2005       O  0.56681389  0.76233286  0.07664778    -0.73800
O2006       O  0.56368718  0.76119694  0.95074508    -0.73800
O2007       O  0.56370723  0.72052593  0.01218683    -0.73800
O2008       O  0.56742195  0.80274950  0.01363296    -0.73900
O2009       O  0.61529340  0.79971599  0.01405592    -0.73800
O2010       O  0.61145307  0.71715768  0.01411963    -0.73800
O2011       O  0.61158418  0.75746428  0.95008185    -0.73800
O2012       O  0.61469689  0.75941758  0.07714280    -0.73800
Ni2013     Ni  0.56376454  0.76181686  0.01347855     1.25400
Ni2014     Ni  0.61500943  0.75827364  0.01377341     1.25400
C2015       C  0.59105691  0.76096684  0.09792302     0.88400
C2016       C  0.58697783  0.75961191  0.92952987     0.88400
C2017       C  0.58698884  0.70501587  0.01296528     0.88400
C2018       C  0.59181578  0.81497064  0.01342995     0.88600
O2019       O  0.57157054  0.75750544  0.44655311    -0.73800
O2020       O  0.56422759  0.76022507  0.57223295    -0.73800
O2021       O  0.56804800  0.80022357  0.50825890    -0.73800
O2022       O  0.56802784  0.71729390  0.50937847    -0.73900
O2023       O  0.61561975  0.71580682  0.51985076    -0.73800
O2024       O  0.61582869  0.79865466  0.51686784    -0.73800
O2025       O  0.61206603  0.75929164  0.58061083    -0.73800
O2026       O  0.61945561  0.75524247  0.45517591    -0.73800
Ni2027     Ni  0.56625648  0.75879738  0.50890327     1.25400
Ni2028     Ni  0.61742260  0.75716270  0.51842226     1.25400
C2029       C  0.59667007  0.75638572  0.43018800     0.88400
C2030       C  0.58707561  0.76056954  0.59718724     0.88400
C2031       C  0.59209338  0.81319384  0.51114050     0.88400
C2032       C  0.59172490  0.70272092  0.51527872     0.88600
N2033       N  0.87616581  0.88778207  0.98155843    -0.35900
N2034       N  0.87480992  0.94996084  0.98995018    -0.56500
N2035       N  0.93870718  0.94912287  0.00371724    -0.35900
N2036       N  0.93941069  0.88671093  0.99555281    -0.56500
C2037       C  0.84816211  0.89443312  0.99004595     0.27600
C2038       C  0.88229736  0.86097352  0.99678900     0.27700
C2039       C  0.93182143  0.97610559  0.99037878     0.27600
C2040       C  0.96569349  0.94296630  0.98994435     0.27600
C2041       C  0.84829980  0.94557352  0.97123727     0.36300
C2042       C  0.88029715  0.97813507  0.98479795     0.36300
C2043       C  0.93437461  0.85910793  0.98236985     0.36300
C2044       C  0.96766670  0.89096727  0.98883816     0.36300
C2045       C  0.83669109  0.87196038  0.01235203    -0.21200
C2046       C  0.85818121  0.85095687  0.01670305    -0.21200
C2047       C  0.95358306  0.98632854  0.96547460    -0.21200
C2048       C  0.97504274  0.96536902  0.96522426    -0.21200
C2049       C  0.83782373  0.97075861  0.95187360    -0.22300
C2050       C  0.85806865  0.99131853  0.96052932    -0.22300
C2051       C  0.95917850  0.84647977  0.96516020    -0.22300
C2052       C  0.98000733  0.86670843  0.96856845    -0.22300
C2053       C  0.83291727  0.91987743  0.97607574    -0.17600
C2054       C  0.90838656  0.84485586  0.98955350    -0.17600
C2055       C  0.98180311  0.91724140  0.99805660    -0.17600
C2056       C  0.90602837  0.99151854  0.99941571    -0.17600
H2057       H  0.81534183  0.87086961  0.02529135     0.15300
H2058       H  0.85616401  0.83081264  0.03332343     0.15300
H2059       H  0.95879853  0.50785899  0.93782779     0.15300
H2060       H  0.49852556  0.96697437  0.94670946     0.15300
H2061       H  0.81805673  0.97422888  0.93269078     0.13600
H2062       H  0.85705979  0.51399120  0.93622838     0.13600
H2063       H  0.96227419  0.82513314  0.95088424     0.13600
H2064       H  0.50507897  0.86503107  0.95119325     0.13600
H2065       H  0.88945953  0.89962877  0.96221903     0.26800
H2066       H  0.92668896  0.93685296  0.02435900     0.26800
N2067       N  0.88139968  0.88970473  0.47840213    -0.35900
N2068       N  0.87990931  0.95249593  0.47942632    -0.56500
N2069       N  0.95654291  0.96276942  0.49391090    -0.35900
N2070       N  0.94466072  0.88697303  0.48931693    -0.56500
C2071       C  0.85378243  0.89720936  0.48823705     0.27600
C2072       C  0.88740880  0.86337006  0.49573420     0.27700
C2073       C  0.93527910  0.97451572  0.46768495     0.27600
C2074       C  0.96822654  0.94050037  0.46981302     0.27600
C2075       C  0.85224727  0.94822002  0.46643555     0.36300
C2076       C  0.88484493  0.98079029  0.47408426     0.36300
C2077       C  0.93908553  0.85919011  0.47855149     0.36300
C2078       C  0.97289796  0.89061935  0.48178173     0.36300
C2079       C  0.84263651  0.87603823  0.51355127    -0.21200
C2080       C  0.86378158  0.85488275  0.51850451    -0.21200
C2081       C  0.93413705  0.96011487  0.42697211    -0.21200
C2082       C  0.95482648  0.93863726  0.42836353    -0.21200
C2083       C  0.83994587  0.97395060  0.45089085    -0.22300
C2084       C  0.86056787  0.99464468  0.45625012    -0.22300
C2085       C  0.96375819  0.84560503  0.46183412    -0.22300
C2086       C  0.98515286  0.86552719  0.46405481    -0.22300
C2087       C  0.83801851  0.92205211  0.47317541    -0.17600
C2088       C  0.91277095  0.84608739  0.48807143    -0.17600
C2089       C  0.98587828  0.91780781  0.48619462    -0.17600
C2090       C  0.91233304  0.99264600  0.48184154    -0.17600
H2091       H  0.82161797  0.87601437  0.52792623     0.15300
H2092       H  0.86183857  0.83572990  0.53758609     0.15300
H2093       H  0.91533292  0.46468659  0.40834046     0.15300
H2094       H  0.45591719  0.92134821  0.40036512     0.15300
H2095       H  0.81861598  0.97782254  0.43656192     0.13600
H2096       H  0.85552876  0.51936911  0.45659845     0.13600
H2097       H  0.96630112  0.82400189  0.44790452     0.13600
H2098       H  0.50736199  0.86104815  0.44687267     0.13600
H2099       H  0.89429317  0.90049864  0.45707089     0.26800
H2100       H  0.96037039  0.96729175  0.52748851     0.26800
N2101       N  0.87756873  0.62907434  0.00696336    -0.35900
N2102       N  0.87821267  0.56725474  0.00975833    -0.56500
N2103       N  0.94137260  0.56419418  0.99162121    -0.35900
N2104       N  0.93973764  0.62652427  0.99657941    -0.56500
C2105       C  0.85242455  0.62561359  0.02750236     0.27600
C2106       C  0.88484282  0.65701505  0.01322605     0.27700
C2107       C  0.93442387  0.53807463  0.00564065     0.27600
C2108       C  0.96761113  0.57044086  0.01003988     0.27600
C2109       C  0.85222798  0.57217798  0.02782070     0.36300
C2110       C  0.88343689  0.53843325  0.01069461     0.36300
C2111       C  0.93290218  0.65285206  0.98065889     0.36300
C2112       C  0.96635346  0.61906257  0.98252875     0.36300
C2113       C  0.84389717  0.65160522  0.04752568    -0.21200
C2114       C  0.86435203  0.67132800  0.03876589    -0.21200
C2115       C  0.95563395  0.52771820  0.03459580    -0.21200
C2116       C  0.97659371  0.54812027  0.03757187    -0.21200
C2117       C  0.84239579  0.54652967  0.04375908    -0.22300
C2118       C  0.86213860  0.52527785  0.03290920    -0.22300
C2119       C  0.95483900  0.66173561  0.95465734    -0.22300
C2120       C  0.97599393  0.64018190  0.95561281    -0.22300
C2121       C  0.83739054  0.59947489  0.02970319    -0.17600
C2122       C  0.90885087  0.66986931  0.99454563    -0.17600
C2123       C  0.98282292  0.59564240  0.00038542    -0.17600
C2124       C  0.90842709  0.52431036  0.99473497    -0.17600
H2125       H  0.82562066  0.65576791  0.06821422     0.15300
H2126       H  0.86434117  0.69347598  0.05101697     0.15300
H2127       H  0.95554633  0.50790799  0.05265515     0.15300
H2128       H  0.49625544  0.54777103  0.06335183     0.15300
H2129       H  0.82393211  0.54319013  0.06352705     0.13600
H2130       H  0.86147320  0.50292904  0.04214677     0.13600
H2131       H  0.95589021  0.68186301  0.93763868     0.13600
H2132       H  0.49739244  0.63596845  0.93516855     0.13600
H2133       H  0.88778185  0.61422226  0.98586144     0.26800
H2134       H  0.92940831  0.57603086  0.96820192     0.26800
N2135       N  0.88045744  0.63036288  0.51038751    -0.35900
N2136       N  0.88334606  0.56782829  0.51395654    -0.56500
N2137       N  0.94573374  0.56607952  0.51012023    -0.35900
N2138       N  0.94212977  0.62949431  0.49942102    -0.56500
C2139       C  0.85234646  0.62341272  0.50637520     0.27600
C2140       C  0.88305182  0.65636610  0.49178933     0.27700
C2141       C  0.93878254  0.53982522  0.49236032     0.27600
C2142       C  0.97165142  0.57274974  0.49502274     0.27600
C2143       C  0.85810291  0.57387390  0.53360781     0.36300
C2144       C  0.89138278  0.54054447  0.52457328     0.36300
C2145       C  0.93571819  0.65575400  0.48284821     0.36300
C2146       C  0.97024970  0.62400374  0.49145241     0.36300
C2147       C  0.83705451  0.64500122  0.48396744    -0.21200
C2148       C  0.85634961  0.66583417  0.47514955    -0.21200
C2149       C  0.96049043  0.53044401  0.46428761    -0.21200
C2150       C  0.98120067  0.55114669  0.46622824    -0.21200
C2151       C  0.85057566  0.55063257  0.55823005    -0.22300
C2152       C  0.87170094  0.52948187  0.55245353    -0.22300
C2153       C  0.95917161  0.66554347  0.46091080    -0.22300
C2154       C  0.98095296  0.64534493  0.46620597    -0.22300
C2155       C  0.84045088  0.59851230  0.52408663    -0.17600
C2156       C  0.90909229  0.67109467  0.48762900    -0.17600
C2157       C  0.98576427  0.59894907  0.50439075    -0.17600
C2158       C  0.91366581  0.52474457  0.50311630    -0.17600
H2159       H  0.81456591  0.64551186  0.47343704     0.15300
H2160       H  0.85137803  0.68489014  0.45623172     0.15300
H2161       H  0.96147583  0.51151316  0.44292590     0.15300
H2162       H  0.50375098  0.54420177  0.45026831     0.15300
H2163       H  0.83157341  0.54874236  0.57750742     0.13600
H2164       H  0.87201197  0.50805922  0.56581232     0.13600
H2165       H  0.96033934  0.68450768  0.44116640     0.13600
H2166       H  0.50361560  0.64186092  0.44117827     0.13600
H2167       H  0.89631947  0.61919112  0.52870318     0.26800
H2168       H  0.93455130  0.57821153  0.53387660     0.26800
N2169       N  0.61821740  0.62943497  0.01943229    -0.35900
N2170       N  0.55493736  0.63101642  0.00976169    -0.56500
N2171       N  0.54429770  0.55430565  0.00587082    -0.35900
N2172       N  0.62110934  0.56674904  0.01733048    -0.56500
C2173       C  0.61128549  0.65592559  0.00337677     0.27600
C2174       C  0.64577692  0.62272004  0.00809535     0.27700
C2175       C  0.53267933  0.57696099  0.02904580     0.27600
C2176       C  0.56660897  0.54422439  0.03155358     0.27600
C2177       C  0.55942893  0.65903851  0.02020157     0.36300
C2178       C  0.52664648  0.62657901  0.01562490     0.36300
C2179       C  0.64864576  0.57173320  0.03000631     0.36300
C2180       C  0.61673353  0.53850353  0.02401788     0.36300
C2181       C  0.63418800  0.66532819  0.97983334    -0.21200
C2182       C  0.65586330  0.64456150  0.98297767    -0.21200
C2183       C  0.54678998  0.58031683  0.06978495    -0.21200
C2184       C  0.56821785  0.55966919  0.07136422    -0.21200
C2185       C  0.53382124  0.67210168  0.03455950    -0.22300
C2186       C  0.51310824  0.65150029  0.03154661    -0.22300
C2187       C  0.66136802  0.54646571  0.04671060    -0.22300
C2188       C  0.64116980  0.52535314  0.04235131    -0.22300
C2189       C  0.58580641  0.67264463  0.01276921    -0.17600
C2190       C  0.66235088  0.59799721  0.02177851    -0.17600
C2191       C  0.58947345  0.52618115  0.01735447    -0.17600
C2192       C  0.51472184  0.59889912  0.01152482    -0.17600
H2193       H  0.63523424  0.68492911  0.96149713     0.15300
H2194       H  0.67646290  0.64534582  0.96748828     0.15300
H2195       H  0.04067728  0.59355974  0.09459370     0.15300
H2196       H  0.58465484  0.55748037  0.09734239     0.15300
H2197       H  0.52999065  0.69381812  0.04721872     0.13600
H2198       H  0.99298543  0.65318733  0.04666247     0.13600
H2199       H  0.68264746  0.54313728  0.06143826     0.13600
H2200       H  0.64370657  0.50336304  0.05328519     0.13600
H2201       H  0.60598907  0.61805362  0.04096664     0.26800
H2202       H  0.53986879  0.54872167  0.97278383     0.26800
N2203       N  0.62306361  0.62673866  0.52427425    -0.35900
N2204       N  0.56032826  0.62901065  0.51059330    -0.56500
N2205       N  0.54904421  0.55404698  0.50780962    -0.35900
N2206       N  0.62367034  0.56460525  0.52999062    -0.56500
C2207       C  0.61707371  0.65362505  0.50897143     0.27600
C2208       C  0.65036100  0.61914391  0.51276997     0.27700
C2209       C  0.53359590  0.57521360  0.52872212     0.27600
C2210       C  0.56798322  0.54341059  0.53833296     0.27600
C2211       C  0.56532887  0.65647671  0.52415361     0.36300
C2212       C  0.53191945  0.62502637  0.51566484     0.36300
C2213       C  0.65220059  0.56817555  0.53671452     0.36300
C2214       C  0.61864739  0.53659469  0.53737097     0.36300
C2215       C  0.64045890  0.66282587  0.48653263    -0.21200
C2216       C  0.66122318  0.64109201  0.48848581    -0.21200
C2217       C  0.54278777  0.57763310  0.57267345    -0.21200
C2218       C  0.56499263  0.55792584  0.57847420    -0.21200
C2219       C  0.54027557  0.66933425  0.54047382    -0.22300
C2220       C  0.51912372  0.64928975  0.53531466    -0.22300
C2221       C  0.66510326  0.54221883  0.55050621    -0.22300
C2222       C  0.64379654  0.52218557  0.55047007    -0.22300
C2223       C  0.59147511  0.67032480  0.51701284    -0.17600
C2224       C  0.66628539  0.59375500  0.52579110    -0.17600
C2225       C  0.59131978  0.52470830  0.52936463    -0.17600
C2226       C  0.51904308  0.59808646  0.50734645    -0.17600
H2227       H  0.64243968  0.68288117  0.46975627     0.15300
H2228       H  0.68187996  0.64148309  0.47307336     0.15300
H2229       H  0.00448128  0.54983556  0.56079160     0.15300
H2230       H  0.57833236  0.55523706  0.60812430     0.15300
H2231       H  0.53741648  0.69064286  0.55543543     0.13600
H2232       H  0.00030423  0.65231008  0.55745135     0.13600
H2233       H  0.68742684  0.53747391  0.55926517     0.13600
H2234       H  0.64649959  0.49970186  0.55889829     0.13600
H2235       H  0.61026353  0.61566708  0.54536253     0.26800
H2236       H  0.54970134  0.54993225  0.47383970     0.26800
N2237       N  0.62057413  0.88929415  0.99308250    -0.35900
N2238       N  0.61565432  0.95161723  0.98375083    -0.56500
N2239       N  0.55440954  0.95219148  0.99563984    -0.35900
N2240       N  0.55974631  0.88871815  0.00553067    -0.56500
C2241       C  0.64406547  0.89366916  0.96904586     0.27600
C2242       C  0.61522802  0.86062194  0.99033759     0.27700
C2243       C  0.56144034  0.97793796  0.01470045     0.27600
C2244       C  0.52944245  0.94453838  0.01265868     0.27600
C2245       C  0.64106576  0.94711776  0.96374022     0.36300
C2246       C  0.60780232  0.97978286  0.97875951     0.36300
C2247       C  0.56781784  0.86352796  0.02409876     0.36300
C2248       C  0.53215242  0.89394208  0.01635141     0.36300
C2249       C  0.65339663  0.86746897  0.95034560    -0.21200
C2250       C  0.63532941  0.84670730  0.96377091    -0.21200
C2251       C  0.54088120  0.98587240  0.04558544    -0.21200
C2252       C  0.52050690  0.96486512  0.04381428    -0.21200
C2253       C  0.64861556  0.97228416  0.94379638    -0.22300
C2254       C  0.62746653  0.99281720  0.95296839    -0.22300
C2255       C  0.54582553  0.85397137  0.04953003    -0.22300
C2256       C  0.52302784  0.87322783  0.04420673    -0.22300
C2257       C  0.65735485  0.92058357  0.96349240    -0.17600
C2258       C  0.59242468  0.84716325  0.01125985    -0.17600
C2259       C  0.51599282  0.91830254  0.00293762    -0.17600
C2260       C  0.58534183  0.99411680  0.00252320    -0.17600
H2261       H  0.67056442  0.86368112  0.92745999     0.15300
H2262       H  0.63636078  0.82422200  0.95326452     0.15300
H2263       H  0.53947075  0.50727942  0.06790180     0.15300
H2264       H  0.99960980  0.96482997  0.06287935     0.15300
H2265       H  0.66689825  0.97555913  0.92355922     0.13600
H2266       H  0.62772711  0.51352389  0.94463942     0.13600
H2267       H  0.54584891  0.83485311  0.06919150     0.13600
H2268       H  0.00184182  0.87171734  0.06066582     0.13600
H2269       H  0.61027235  0.90445682  0.01362158     0.26800
H2270       H  0.56467847  0.94105946  0.96991386     0.26800
N2271       N  0.62348629  0.88582760  0.48899958    -0.35900
N2272       N  0.56111402  0.88827507  0.49801297    -0.56500
N2273       N  0.55921311  0.95093739  0.49825203    -0.35900
N2274       N  0.62180016  0.94745770  0.47974462    -0.56500
C2275       C  0.61694615  0.85749912  0.48682558     0.27600
C2276       C  0.64887813  0.88871485  0.46872496     0.27700
C2277       C  0.53283608  0.94439888  0.48074521     0.27600
C2278       C  0.56566170  0.97714719  0.48394387     0.27600
C2279       C  0.56794128  0.86268408  0.51667416     0.36300
C2280       C  0.53420236  0.89613271  0.51059253     0.36300
C2281       C  0.64746978  0.94195008  0.46108606     0.36300
C2282       C  0.61637153  0.97611896  0.47627637     0.36300
C2283       C  0.63829734  0.84220633  0.46427587    -0.21200
C2284       C  0.65839905  0.86175092  0.45318743    -0.21200
C2285       C  0.52324472  0.96664830  0.45343629    -0.21200
C2286       C  0.54390196  0.98737261  0.45586693    -0.21200
C2287       C  0.54556500  0.85470893  0.54256858    -0.22300
C2288       C  0.52426210  0.87597221  0.53886956    -0.22300
C2289       C  0.65679602  0.96683992  0.44211052    -0.22300
C2290       C  0.63715592  0.98846374  0.45193936    -0.22300
C2291       C  0.59261330  0.84531128  0.50597130    -0.17600
C2292       C  0.66309045  0.91511948  0.46260339    -0.17600
C2293       C  0.59193424  0.99080376  0.49297230    -0.17600
C2294       C  0.51783801  0.91924600  0.49138109    -0.17600
H2295       H  0.63906515  0.81949128  0.45506876     0.15300
H2296       H  0.67691122  0.85657154  0.43348353     0.15300
H2297       H  0.00427777  0.96857978  0.43304311     0.15300
H2298       H  0.54104902  0.50712362  0.57772496     0.15300
H2299       H  0.54441802  0.83542991  0.56165148     0.13600
H2300       H  0.00491283  0.87808970  0.55796466     0.13600
H2301       H  0.67531459  0.96927312  0.42199849     0.13600
H2302       H  0.62655444  0.51536110  0.45356278     0.13600
H2303       H  0.61238839  0.90172695  0.50737770     0.26800
H2304       H  0.57163080  0.93926169  0.52133696     0.26800
C2305       C  0.60152489  0.77752104  0.71931224    -0.11200
C2306       C  0.58212444  0.75950299  0.73852402     0.11400
C2307       C  0.56207769  0.74411380  0.71144076    -0.03000
C2308       C  0.56396950  0.74538941  0.66523263    -0.05700
C2309       C  0.58477973  0.76199756  0.64587427    -0.16500
C2310       C  0.60312663  0.77929710  0.67333623     0.02400
C2311       C  0.58302108  0.75823332  0.78737935     0.12300
C2312       C  0.53883470  0.72664474  0.73133976     0.63000
H2313       H  0.54955037  0.73296271  0.64385264     0.12400
C2314       C  0.62382885  0.80019069  0.65456633     0.55100
H2315       H  0.61583163  0.78993231  0.74091513     0.08200
C2316       C  0.60338421  0.74043307  0.81051662    -0.05600
C2317       C  0.60397563  0.74152828  0.85696684    -0.06400
C2318       C  0.58523208  0.76007217  0.88062123    -0.16000
C2319       C  0.56551633  0.77866436  0.85721501    -0.01500
C2320       C  0.56478943  0.77725892  0.81082013    -0.09100
C2321       C  0.62466031  0.72073681  0.78618376     0.65200
H2322       H  0.61909588  0.72777956  0.87527034     0.10600
C2323       C  0.54588373  0.80058290  0.88066900     0.63600
H2324       H  0.55002948  0.79121807  0.79222133     0.08000
F2325       F  0.64670211  0.78507633  0.63591503    -0.19500
F2326       F  0.63495605  0.81882480  0.68686188    -0.15700
F2327       F  0.60960267  0.81677528  0.62293521    -0.19200
F2328       F  0.52121802  0.74463951  0.75652706    -0.22600
F2329       F  0.55128205  0.70560789  0.75786269    -0.24100
F2330       F  0.52169642  0.71317594  0.69918626    -0.18000
F2331       F  0.56167855  0.81656148  0.91160613    -0.20500
F2332       F  0.52454014  0.78647708  0.90137988    -0.21700
F2333       F  0.53260566  0.81971887  0.85159616    -0.18900
F2334       F  0.64189245  0.70452213  0.81491350    -0.19000
F2335       F  0.64245955  0.73707597  0.76188885    -0.22800
F2336       F  0.61001372  0.70189758  0.75800803    -0.24400
C2337       C  0.57353001  0.75118832  0.21897096    -0.11200
C2338       C  0.59728813  0.76392461  0.24041073     0.11400
C2339       C  0.61915837  0.77536354  0.21532190    -0.03000
C2340       C  0.61608755  0.77408247  0.16896771    -0.05700
C2341       C  0.59203330  0.76167598  0.14713050    -0.16500
C2342       C  0.57027305  0.74989855  0.17270434     0.02400
C2343       C  0.59880980  0.76377829  0.28935473     0.12300
C2344       C  0.64573441  0.78850328  0.23740596     0.63000
H2345       H  0.63260565  0.78286026  0.14932367     0.12400
C2346       C  0.54413531  0.73513660  0.15193589     0.55100
H2347       H  0.55741997  0.74219513  0.23918427     0.08200
C2348       C  0.58270684  0.78391229  0.31531215    -0.05600
C2349       C  0.58327206  0.78091064  0.36130772    -0.06400
C2350       C  0.59890987  0.75831112  0.38181858    -0.16000
C2351       C  0.61488356  0.73805107  0.35580146    -0.01500
C2352       C  0.61459583  0.74125678  0.30975305    -0.09100
C2353       C  0.56438299  0.80796765  0.29449502     0.65200
H2354       H  0.57104719  0.79604399  0.38177968     0.10600
C2355       C  0.63082060  0.71237817  0.37614111     0.63600
H2356       H  0.62615033  0.72575718  0.28899914     0.08000
F2357       F  0.52648774  0.75507485  0.13018391    -0.19500
F2358       F  0.52778162  0.72256974  0.18313956    -0.15700
F2359       F  0.55305511  0.71355717  0.12260798    -0.19200
F2360       F  0.66155109  0.76748484  0.25982678    -0.22600
F2361       F  0.63772963  0.81031296  0.26693773    -0.24100
F2362       F  0.66338591  0.80015349  0.20704377    -0.18000
F2363       F  0.64256312  0.69389778  0.34439937    -0.20500
F2364       F  0.61192016  0.69690741  0.39987469    -0.21700
F2365       F  0.65305004  0.72180294  0.40384502    -0.18900
F2366       F  0.55238650  0.82644426  0.32601955    -0.19000
F2367       F  0.54214443  0.79627649  0.26909395    -0.22800
F2368       F  0.58098246  0.82413493  0.26806427    -0.24400
C2369       C  0.77512666  0.57941875  0.82735802    -0.11200
C2370       C  0.75267428  0.59260809  0.80244116     0.11400
C2371       C  0.72971324  0.60727417  0.82419672    -0.03000
C2372       C  0.73027157  0.60846212  0.87064899    -0.05700
C2373       C  0.75285496  0.59544685  0.89556485    -0.16500
C2374       C  0.77601750  0.58112148  0.87377620     0.02400
C2375       C  0.75430697  0.59150701  0.75353975     0.12300
C2376       C  0.70484378  0.62170185  0.79847258     0.63000
H2377       H  0.71285446  0.61933778  0.88801635     0.12400
C2378       C  0.80240351  0.56933491  0.89919004     0.55100
H2379       H  0.79234282  0.56826341  0.80993501     0.08200
C2380       C  0.77249904  0.60976628  0.73114140    -0.05600
C2381       C  0.77203860  0.60847615  0.68477432    -0.06400
C2382       C  0.75405889  0.58970498  0.66029447    -0.16000
C2383       C  0.73574232  0.57150498  0.68276728    -0.01500
C2384       C  0.73678716  0.57225050  0.72925351    -0.09100
C2385       C  0.79228414  0.63057252  0.75603405     0.65200
H2386       H  0.78584046  0.62224272  0.66707703     0.10600
C2387       C  0.71375737  0.55300038  0.65808246     0.63600
H2388       H  0.72330137  0.55831148  0.74719027     0.08000
F2389       F  0.82330198  0.55836918  0.87127033    -0.19500
F2390       F  0.79488904  0.54733600  0.92596620    -0.15700
F2391       F  0.81439766  0.59129631  0.92488889    -0.19200
F2392       F  0.68971253  0.60115184  0.77417207    -0.22600
F2393       F  0.71526843  0.64150089  0.77019390    -0.24100
F2394       F  0.68574542  0.63616869  0.82605684    -0.18000
F2395       F  0.72757623  0.53173431  0.63306100    -0.20500
F2396       F  0.69653039  0.57024762  0.63089155    -0.21700
F2397       F  0.69599297  0.53960170  0.68648341    -0.18900
F2398       F  0.80585075  0.64835584  0.72780456    -0.19000
F2399       F  0.81336477  0.61521761  0.77950063    -0.22800
F2400       F  0.77664784  0.64795716  0.78494336    -0.24400
C2401       C  0.77155152  0.58809603  0.32313073    -0.11200
C2402       C  0.75299174  0.60856714  0.30298111     0.11400
C2403       C  0.73521035  0.62690438  0.32936849    -0.03000
C2404       C  0.73635838  0.62367611  0.37544923    -0.05700
C2405       C  0.75455395  0.60276992  0.39564736    -0.16500
C2406       C  0.77321356  0.58523614  0.36919511     0.02400
C2407       C  0.75168553  0.60897300  0.25393995     0.12300
C2408       C  0.71492313  0.64954363  0.30894804     0.63000
H2409       H  0.72245839  0.63706369  0.39607671     0.12400
C2410       C  0.79560290  0.56436054  0.38920817     0.55100
H2411       H  0.78469233  0.57412358  0.30218837     0.08200
C2412       C  0.77344471  0.62128539  0.22939218    -0.05600
C2413       C  0.77134853  0.61926950  0.18298143    -0.06400
C2414       C  0.74869486  0.60493146  0.16080692    -0.16000
C2415       C  0.72672425  0.59305206  0.18533941    -0.01500
C2416       C  0.72880583  0.59505519  0.23170423    -0.09100
C2417       C  0.79885262  0.63623149  0.25201491     0.65200
H2418       H  0.78781845  0.62831575  0.16350080     0.10600
C2419       C  0.70083886  0.57904315  0.16269102     0.63600
H2420       H  0.71267000  0.58545074  0.25117394     0.08000
F2421       F  0.81444462  0.55338567  0.35805719    -0.19500
F2422       F  0.78221992  0.54131795  0.40690794    -0.15700
F2423       F  0.81174458  0.57847049  0.42188255    -0.19200
F2424       F  0.69361052  0.63623874  0.28359611    -0.22600
F2425       F  0.73003188  0.66717947  0.28256375    -0.24100
F2426       F  0.70172332  0.66685864  0.34077428    -0.18000
F2427       F  0.70958023  0.55412634  0.14018884    -0.20500
F2428       F  0.68764614  0.59798664  0.13331542    -0.21700
F2429       F  0.68058021  0.57172516  0.19260304    -0.18900
F2430       F  0.81641768  0.64827851  0.22190624    -0.19000
F2431       F  0.81543801  0.61657848  0.27602531    -0.22800
F2432       F  0.78906072  0.65810553  0.28012902    -0.24400
C2433       C  0.93103169  0.77421952  0.79034193    -0.11200
C2434       C  0.91746896  0.75224336  0.76564234     0.11400
C2435       C  0.90401852  0.72992462  0.78755783    -0.03000
C2436       C  0.90324459  0.73137144  0.83400205    -0.05700
C2437       C  0.91601872  0.75396821  0.85865977    -0.16500
C2438       C  0.93024947  0.77570798  0.83659541     0.02400
C2439       C  0.91688649  0.75403072  0.71677884     0.12300
C2440       C  0.89060413  0.70481661  0.76193877     0.63000
H2441       H  0.89273453  0.71480303  0.85151670     0.12400
C2442       C  0.94354944  0.80098686  0.86166683     0.55100
H2443       H  0.94165593  0.79069647  0.77279469     0.08200
C2444       C  0.89709633  0.77272655  0.69423539    -0.05600
C2445       C  0.89777021  0.77360778  0.64799754    -0.06400
C2446       C  0.91778063  0.75687414  0.62375880    -0.16000
C2447       C  0.93809645  0.73858540  0.64658897    -0.01500
C2448       C  0.93726744  0.73765017  0.69294933    -0.09100
C2449       C  0.87523998  0.79157064  0.71893239     0.65200
H2450       H  0.88261384  0.78762882  0.63025882     0.10600
C2451       C  0.96026315  0.71973829  0.62256072     0.63600
H2452       H  0.95266660  0.72416016  0.71118785     0.08000
F2453       F  0.95364452  0.82121282  0.83371060    -0.19500
F2454       F  0.96654423  0.79111394  0.88773583    -0.15700
F2455       F  0.92307870  0.81461336  0.88775973    -0.19200
F2456       F  0.91162191  0.68953207  0.73904000    -0.22600
F2457       F  0.86964439  0.71495812  0.73233886    -0.24100
F2458       F  0.87791641  0.68593467  0.78948443    -0.18000
F2459       F  0.98041944  0.73696700  0.60465399    -0.20500
F2460       F  0.94688380  0.70344800  0.58934983    -0.21700
F2461       F  0.97478129  0.70077906  0.65059674    -0.18900
F2462       F  0.85718273  0.80713915  0.69049449    -0.19000
F2463       F  0.88931396  0.81107758  0.74671681    -0.22800
F2464       F  0.85834552  0.77454318  0.74363727    -0.24400
C2465       C  0.91899252  0.77930290  0.19648438    -0.11200
C2466       C  0.90023390  0.76073027  0.21602847     0.11400
C2467       C  0.88148652  0.74370093  0.18915088    -0.03000
C2468       C  0.88348913  0.74454498  0.14298859    -0.05700
C2469       C  0.90340053  0.76195833  0.12328773    -0.16500
C2470       C  0.92101214  0.78028705  0.15039053     0.02400
C2471       C  0.90117977  0.75934868  0.26488952     0.12300
C2472       C  0.85940845  0.72491392  0.20923532     0.63000
H2473       H  0.86982870  0.73114739  0.12184741     0.12400
C2474       C  0.94158806  0.80112991  0.13115187     0.55100
H2475       H  0.93262316  0.79256934  0.21790285     0.08200
C2476       C  0.92213606  0.74206769  0.28768661    -0.05600
C2477       C  0.92218367  0.74215863  0.33402495    -0.06400
C2478       C  0.90220917  0.75905022  0.35805134    -0.16000
C2479       C  0.88134420  0.77660457  0.33510397    -0.06300
C2480       C  0.88134690  0.77645279  0.28866746    -0.09100
C2481       C  0.94467799  0.72402315  0.26317665     0.65200
H2482       H  0.93805984  0.72906230  0.35201036     0.10600
C2483       C  0.85964418  0.79599553  0.35918759     0.63600
H2484       H  0.86582441  0.78975260  0.27034317     0.08000
F2485       F  0.96466012  0.78595274  0.11316434    -0.19500
F2486       F  0.95242775  0.82028079  0.16298351    -0.15700
F2487       F  0.92739073  0.81715895  0.09884775    -0.19200
F2488       F  0.83980750  0.74219047  0.23197437    -0.22600
F2489       F  0.87286782  0.70583115  0.23807263    -0.24100
F2490       F  0.84432366  0.70898130  0.17734402    -0.18000
F2491       F  0.84433473  0.81410542  0.33073867    -0.20500
F2492       F  0.87371749  0.81314198  0.39063571    -0.21700
F2493       F  0.84005004  0.77925965  0.37939137    -0.18900
F2494       F  0.96179727  0.70740447  0.29151108    -0.19000
F2495       F  0.96240225  0.74194718  0.24146393    -0.22800
F2496       F  0.93145366  0.70559077  0.23269714    -0.24400
C2497       C  0.76760864  0.92927216  0.66998226    -0.11200
C2498       C  0.74959526  0.90976169  0.68913318     0.11400
C2499       C  0.73219946  0.89158768  0.66173765    -0.03000
C2500       C  0.73360136  0.89359574  0.61558544    -0.05700
C2501       C  0.75132970  0.91345616  0.59637913    -0.16500
C2502       C  0.76903561  0.93134261  0.62393596     0.02400
C2503       C  0.74835812  0.91023745  0.73808230     0.12300
C2504       C  0.71208856  0.87041214  0.68118578     0.63000
H2505       H  0.72028327  0.88011331  0.59403027     0.12400
C2506       C  0.78999942  0.95194916  0.60506397     0.55100
H2507       H  0.78038719  0.94318887  0.69166355     0.08200
C2508       C  0.76959638  0.89613936  0.76510850    -0.05600
C2509       C  0.76734482  0.89846821  0.81126062    -0.06400
C2510       C  0.74536550  0.91528349  0.83092414    -0.16000
C2511       C  0.72414013  0.92946626  0.80383476    -0.01500
C2512       C  0.72613182  0.92669937  0.75767985    -0.09100
C2513       C  0.79500636  0.87951347  0.74540865     0.65200
H2514       H  0.78336985  0.88790639  0.83255842     0.10600
C2515       C  0.69903895  0.94670930  0.82335049     0.63600
H2516       H  0.71043682  0.93764044  0.73627750     0.08000
F2517       F  0.80803923  0.96383524  0.63753673    -0.19500
F2518       F  0.77501489  0.97438732  0.58466133    -0.15700
F2519       F  0.80709454  0.93730538  0.57479151    -0.19200
F2520       F  0.69141172  0.88524249  0.70536800    -0.22600
F2521       F  0.72756970  0.85179461  0.70850162    -0.24100
F2522       F  0.69803532  0.85398340  0.64875325    -0.18000
F2523       F  0.70903448  0.97064801  0.84663631    -0.20500
F2524       F  0.68448143  0.92961612  0.85131556    -0.21700
F2525       F  0.67955590  0.95630375  0.79100683    -0.18900
F2526       F  0.81189411  0.86573484  0.77741106    -0.19000
F2527       F  0.81215801  0.89832004  0.72434961    -0.22800
F2528       F  0.78538916  0.85876453  0.71525665    -0.24400
C2529       C  0.72303302  0.91511079  0.16681166    -0.11200
C2530       C  0.74503012  0.93025334  0.18935256     0.11400
C2531       C  0.76596240  0.94407647  0.16510141    -0.03000
C2532       C  0.76435152  0.94182911  0.11872998    -0.05700
C2533       C  0.74291623  0.92593329  0.09629621    -0.16500
C2534       C  0.72138113  0.91298105  0.12039749     0.02400
C2535       C  0.74684521  0.92929789  0.23833752     0.12300
C2536       C  0.79003373  0.96087941  0.18806623     0.63000
H2537       H  0.78031447  0.95190931  0.09949480     0.12400
C2538       C  0.69648065  0.89759056  0.09717002     0.55100
H2539       H  0.70740586  0.90451224  0.18600934     0.08200
C2540       C  0.72930925  0.94721508  0.26564719    -0.05600
C2541       C  0.73193484  0.94426310  0.31172628    -0.06400
C2542       C  0.75113347  0.92383014  0.33106660    -0.16000
C2543       C  0.76928010  0.90649156  0.30356744    -0.01500
C2544       C  0.76632283  0.90921874  0.25752787    -0.09100
C2545       C  0.70756853  0.96892779  0.24621288     0.65200
H2546       H  0.71836853  0.95747041  0.33310488     0.10600
C2547       C  0.79238322  0.88592725  0.32234328     0.63600
H2548       H  0.77930304  0.89559585  0.23584800     0.08000
F2549       F  0.67583129  0.89024462  0.12641889    -0.19500
F2550       F  0.70655127  0.87253514  0.07633991    -0.15700
F2551       F  0.68326393  0.91539625  0.06618888    -0.19200
F2552       F  0.80729237  0.94266735  0.21362187    -0.22600
F2553       F  0.77850201  0.98263442  0.21477786    -0.24100
F2554       F  0.80737443  0.97343374  0.15816970    -0.18000
F2555       F  0.77970559  0.86252959  0.34020481    -0.20500
F2556       F  0.80880779  0.90006059  0.35465322    -0.21700
F2557       F  0.81084901  0.87557200  0.29021273    -0.18900
F2558       F  0.69388484  0.98523966  0.27871208    -0.19000
F2559       F  0.68674163  0.95459138  0.22128360    -0.22800
F2560       F  0.72117448  0.98764580  0.21962352    -0.24400
loop_ 
_geom_bond_atom_site_label_1 
_geom_bond_atom_site_label_2 
_geom_bond_distance 
_geom_bond_site_symmetry_2 
_ccdc_geom_bond_type 
O1           Ni9   1.921       .  S
O1           C11   1.281       .  A
O2           Ni9   1.914   1_554  S
O2           C12   1.280       .  A
O3           Ni9   1.926       .  S
O3           C13   1.284       .  A
O4           Ni9   1.926       .  S
O4           C14   1.283       .  A
O5          Ni10   1.922       .  S
O5           C14   1.282       .  A
O6          Ni10   1.925       .  S
O6           C13   1.283       .  A
O7          Ni10   1.918   1_554  S
O7           C12   1.280       .  A
O8          Ni10   1.919       .  S
O8           C11   1.280       .  A
Ni9         Ni10   2.381       .  S
C11         C590   1.480       .  S
C12         C613   1.475       .  S
C13         C133   1.507       .  S
C14         C337   1.512       .  S
O15         Ni23   1.917       .  S
O15          C25   1.281       .  A
O16         Ni23   1.908       .  S
O16          C26   1.278       .  A
O17         Ni23   1.914       .  S
O17          C27   1.279       .  A
O18         Ni23   1.910       .  S
O18          C28   1.282       .  A
O19         Ni24   1.929       .  S
O19          C28   1.282       .  A
O20         Ni24   1.923       .  S
O20          C27   1.284       .  A
O21         Ni24   1.925       .  S
O21          C26   1.283       .  A
O22         Ni24   1.918       .  S
O22          C25   1.280       .  A
Ni23        Ni24   2.380       .  S
C25         C622   1.480       .  S
C26         C581   1.481       .  S
C27         C167   1.500       .  S
C28         C372   1.508       .  S
O29         Ni37   1.916       .  S
O29          C39   1.281   1_556  A
O30         Ni37   1.919       .  S
O30          C40   1.281   1_556  A
O31         Ni37   1.916       .  S
O31          C41   1.282       .  A
O32         Ni37   1.928   1_554  S
O32          C42   1.284       .  A
O33         Ni38   1.904       .  S
O33          C42   1.277       .  A
O34         Ni38   1.913   1_556  S
O34          C41   1.278       .  A
O35         Ni38   1.923       .  S
O35          C40   1.282       .  A
O36         Ni38   1.921       .  S
O36          C39   1.282       .  A
Ni37        Ni38   2.380   1_556  S
C39         C202   1.494       .  S
C40         C134   1.505       .  S
C41         C517   1.490       .  S
C42         C549   1.483       .  S
O43         Ni51   1.916       .  S
O43          C53   1.280       .  A
O44         Ni51   1.926       .  S
O44          C54   1.284       .  A
O45         Ni51   1.902       .  S
O45          C55   1.277       .  A
O46         Ni51   1.895       .  S
O46          C56   1.277       .  A
O47         Ni52   1.930       .  S
O47          C56   1.284       .  A
O48         Ni52   1.930       .  S
O48          C55   1.285       .  A
O49         Ni52   1.908       .  S
O49          C54   1.277       .  A
O50         Ni52   1.915       .  S
O50          C53   1.280       .  A
Ni51        Ni52   2.380       .  S
C53         C526   1.471       .  S
C54         C558   1.484       .  S
C55         C168   1.502       .  S
C56         C236   1.501       .  S
O57         Ni65   1.915       .  S
O57          C67   1.279       .  A
O58         Ni65   1.908   1_556  S
O58          C68   1.277       .  A
O59         Ni65   1.902       .  S
O59          C69   1.279       .  A
O60         Ni65   1.906       .  S
O60          C70   1.278       .  A
O61         Ni66   1.927       .  S
O61          C70   1.284       .  A
O62         Ni66   1.923       .  S
O62          C69   1.282       .  A
O63         Ni66   1.931   1_556  S
O63          C68   1.285       .  A
O64         Ni66   1.922       .  S
O64          C67   1.282       .  A
Ni65        Ni66   2.378       .  S
C67         C494   1.482       .  S
C68         C453   1.491       .  S
C69         C201   1.501       .  S
C70         C270   1.501       .  S
O71         Ni79   1.924       .  S
O71          C81   1.281       .  A
O72         Ni79   1.912       .  S
O72          C82   1.279       .  A
O73         Ni79   1.924       .  S
O73          C83   1.282       .  A
O74         Ni79   1.921       .  S
O74          C84   1.282       .  A
O75         Ni80   1.919       .  S
O75          C84   1.281       .  A
O76         Ni80   1.913       .  S
O76          C83   1.282       .  A
O77         Ni80   1.930       .  S
O77          C82   1.283       .  A
O78         Ni80   1.914       .  S
O78          C81   1.280       .  A
Ni79        Ni80   2.382       .  S
C81         C462   1.479       .  S
C82         C485   1.488       .  S
C83         C235   1.498       .  S
C84         C304   1.503       .  S
O85         Ni93   1.917       .  S
O85          C95   1.279       .  A
O86         Ni93   1.904   1_556  S
O86          C96   1.277       .  A
O87         Ni93   1.917       .  S
O87          C97   1.280       .  A
O88         Ni93   1.913       .  S
O88          C98   1.282       .  A
O89         Ni94   1.925       .  S
O89          C98   1.282       .  A
O90         Ni94   1.923       .  S
O90          C97   1.283       .  A
O91         Ni94   1.930   1_556  S
O91          C96   1.284       .  A
O92         Ni94   1.921       .  S
O92          C95   1.283       .  A
Ni93        Ni94   2.380       .  S
C95         C421   1.490       .  S
C96         C398   1.480       .  S
C97         C269   1.505       .  S
C98         C338   1.502       .  S
O99        Ni107   1.908       .  S
O99         C109   1.279       .  A
O100       Ni107   1.920       .  S
O100        C110   1.282       .  A
O101       Ni107   1.923       .  S
O101        C111   1.283       .  A
O102       Ni107   1.929       .  S
O102        C112   1.284       .  A
O103       Ni108   1.919       .  S
O103        C112   1.281       .  A
O104       Ni108   1.914       .  S
O104        C111   1.281       .  A
O105       Ni108   1.912       .  S
O105        C110   1.279       .  A
O106       Ni108   1.924       .  S
O106        C109   1.282       .  A
Ni107      Ni108   2.382       .  S
C109        C430   1.475       .  S
C110        C389   1.486       .  S
C111        C371   1.497       .  S
C112        C303   1.508       .  S
N113        C118   1.355   1_556  A
N113        C117   1.357       .  A
N113        H145   1.044       .  S
N114        C121   1.353       .  A
N114        C122   1.350       .  A
N115        C120   1.351   1_554  A
N115        C119   1.350   1_554  A
N115        H146   1.044       .  S
N116        C123   1.355   1_554  A
N116        C124   1.354   1_554  A
C117        C125   1.387   1_556  A
C117        C133   1.421       .  A
C118        C134   1.421       .  A
C118        C126   1.388       .  A
C119        C127   1.384       .  A
C119        C136   1.402       .  A
C120        C135   1.409   1_556  A
C120        C128   1.388       .  A
C121        C133   1.417       .  A
C121        C129   1.389       .  A
C122        C136   1.413       .  A
C122        C130   1.385       .  A
C123        C131   1.387       .  A
C123        C134   1.420   1_556  A
C124        C132   1.384       .  A
C124        C135   1.417   1_556  A
C125        C126   1.378       .  A
C125        H137   1.082       .  S
C126        H138   1.082       .  S
C127        C128   1.368       .  A
C127        H779   1.082       .  S
C128       H1420   1.082       .  S
C129        C130   1.374       .  A
C129        H141   1.081       .  S
C130        H782   1.082       .  S
C131        C132   1.368       .  A
C131        H143   1.077       .  S
C132       H1424   1.082       .  S
C135       C1619   1.524       .  S
C136        C844   1.520   1_556  S
H139        C767   1.082   1_545  S
H140       C1408   1.082       .  S
H142        C770   1.082   1_545  S
H144       C1412   1.082   1_455  S
N147        C152   1.355       .  A
N147        C151   1.357       .  A
N147        H179   1.044       .  S
N148        C155   1.349       .  A
N148        C156   1.350       .  A
N149        C154   1.357       .  A
N149        C153   1.354       .  A
N149        H180   1.044       .  S
N150        C157   1.354       .  A
N150        C158   1.357       .  A
C151        C159   1.389       .  A
C151        C167   1.422       .  A
C152        C168   1.414       .  A
C152        C160   1.385       .  A
C153        C161   1.385       .  A
C153        C170   1.405       .  A
C154        C169   1.407       .  A
C154        C162   1.386       .  A
C155        C167   1.421       .  A
C155        C163   1.393       .  A
C156        C170   1.412       .  A
C156        C164   1.383       .  A
C157        C165   1.388       .  A
C157        C168   1.419       .  A
C158        C166   1.386       .  A
C158        C169   1.418       .  A
C159        C160   1.374       .  A
C159        H171   1.082       .  S
C160        H172   1.082       .  S
C161        C162   1.366       .  A
C161        H813   1.083       .  S
C162       H1454   1.083       .  S
C163        C164   1.379       .  A
C163        H175   1.080       .  S
C164        H816   1.082       .  S
C165        C166   1.369       .  A
C165        H177   1.081       .  S
C166       H1458   1.081       .  S
C169       C1654   1.522       .  S
C170        C878   1.524       .  S
H173        C801   1.083       .  S
H174       C1442   1.083       .  S
H176        C804   1.082   1_545  S
H178       C1446   1.082   1_455  S
N181        C186   1.355       .  A
N181        C185   1.354       .  A
N181        H213   1.041   1_554  S
N182        C189   1.351       .  A
N182        C190   1.351       .  A
N183        C188   1.358   1_556  A
N183        C187   1.347   1_556  A
N183        H214   1.044       .  S
N184        C191   1.350   1_554  A
N184        C192   1.351   1_554  A
C185        C193   1.386       .  A
C185        C201   1.418       .  A
C186        C202   1.420       .  A
C186        C194   1.388       .  A
C187        C195   1.382       .  A
C187        C204   1.409       .  A
C188        C203   1.426       .  A
C188        C196   1.393       .  A
C189        C201   1.419       .  A
C189        C197   1.390       .  A
C190        C204   1.407       .  A
C190        C198   1.382       .  A
C191        C199   1.387       .  A
C191        C202   1.414   1_556  A
C192        C200   1.386       .  A
C192        C203   1.416   1_556  A
C193        C194   1.375       .  A
C193        H205   1.082       .  S
C194        H206   1.081       .  S
C195        C196   1.377       .  A
C195        H207   1.083       .  S
C196       H1488   1.077       .  S
C197        C198   1.364       .  A
C197        H209   1.080       .  S
C198        H210   1.082       .  S
C199        C200   1.379       .  A
C199        H211   1.082       .  S
C200       H1492   1.082       .  S
C203       C1552   1.524       .  S
C204        C776   1.522   1_544  S
H208       C1476   1.075       .  S
H212       C1480   1.082       .  S
N215        C220   1.355       .  A
N215        C219   1.353       .  A
N215        H247   1.042       .  S
N216        C223   1.353       .  A
N216        C224   1.353       .  A
N217        C222   1.350       .  A
N217        C221   1.360       .  A
N217        H248   1.044       .  S
N218        C225   1.351       .  A
N218        C226   1.352       .  A
C219        C227   1.389       .  A
C219        C235   1.420       .  A
C220        C236   1.413       .  A
C220        C228   1.384       .  A
C221        C229   1.392       .  A
C221        C238   1.429       .  A
C222        C237   1.416       .  A
C222        C230   1.382       .  A
C223        C235   1.418       .  A
C223        C231   1.387       .  A
C224        C238   1.422       .  A
C224        C232   1.387       .  A
C225        C233   1.389       .  A
C225        C236   1.417       .  A
C226        C234   1.382       .  A
C226        C237   1.407       .  A
C227        C228   1.371       .  A
C227        H239   1.081       .  S
C228        H240   1.081       .  S
C229        C230   1.378       .  A
C229        H241   1.077       .  S
C230       H1522   1.082       .  S
C231        C232   1.379       .  A
C231        H243   1.082       .  S
C232        H244   1.082       .  S
C233        C234   1.365       .  A
C233        H245   1.081       .  S
C234       H1526   1.082       .  S
C237       C1586   1.530       .  S
C238        C810   1.528   1_545  S
H242       C1510   1.082   1_455  S
H246       C1514   1.082   1_455  S
N249        C254   1.359       .  A
N249        C253   1.358       .  A
N249        H281   1.044       .  S
N250        C257   1.351       .  A
N250        C258   1.354       .  A
N251        C256   1.356       .  A
N251        C255   1.357       .  A
N251        H282   1.044   1_554  S
N252        C259   1.348       .  A
N252        C260   1.352       .  A
C253        C261   1.387   1_554  A
C253        C269   1.424       .  A
C254        C270   1.424       .  A
C254        C262   1.387   1_554  A
C255        C263   1.385       .  A
C255        C272   1.402       .  A
C256        C271   1.406       .  A
C256        C264   1.388       .  A
C257        C269   1.423       .  A
C257        C265   1.393       .  A
C258        C272   1.416       .  A
C258        C266   1.382       .  A
C259        C267   1.395       .  A
C259        C270   1.421       .  A
C260        C268   1.380       .  A
C260        C271   1.409       .  A
C261        C262   1.375       .  A
C261        H273   1.082       .  S
C262        H274   1.082       .  S
C263        C264   1.362       .  A
C263       H1555   1.083       .  S
C264        H276   1.083       .  S
C265        C266   1.374       .  A
C265        H277   1.078       .  S
C266       H1558   1.082   1_455  S
C267        C268   1.375       .  A
C267        H279   1.079       .  S
C268        H280   1.082       .  S
C271        C980   1.527   1_545  S
C272       C1483   1.527   1_455  S
H275       C1543   1.083       .  S
H278       C1546   1.082       .  S
N283        C288   1.356       .  A
N283        C287   1.357       .  A
N283        H315   1.044       .  S
N284        C291   1.355       .  A
N284        C292   1.352       .  A
N285        C290   1.352       .  A
N285        C289   1.351       .  A
N285        H316   1.044       .  S
N286        C293   1.354       .  A
N286        C294   1.352       .  A
C287        C295   1.388       .  A
C287        C303   1.424       .  A
C288        C304   1.420       .  A
C288        C296   1.386       .  A
C289        C297   1.386       .  A
C289        C306   1.407       .  A
C290        C305   1.407       .  A
C290        C298   1.386       .  A
C291        C303   1.418       .  A
C291        C299   1.387       .  A
C292        C306   1.417       .  A
C292        C300   1.386       .  A
C293        C301   1.388       .  A
C293        C304   1.417       .  A
C294        C302   1.384       .  A
C294        C305   1.414       .  A
C295        C296   1.375       .  A
C295        H307   1.078       .  S
C296        H308   1.082       .  S
C297        C298   1.369       .  A
C297       H1589   1.082       .  S
C298        H310   1.082       .  S
C299        C300   1.373       .  A
C299        H311   1.081       .  S
C300       H1592   1.082   1_455  S
C301        C302   1.370       .  A
C301        H313   1.079       .  S
C302        H314   1.082       .  S
C305       C1013   1.524   1_545  S
C306       C1517   1.526   1_455  S
H309       C1577   1.082       .  S
H312       C1580   1.082       .  S
N317        C322   1.359   1_554  A
N317        C321   1.358   1_554  A
N317        H349   1.042       .  S
N318        C325   1.353       .  A
N318        C326   1.355       .  A
N319        C324   1.349   1_556  A
N319        C323   1.357   1_556  A
N319        H350   1.044       .  S
N320        C327   1.351       .  A
N320        C328   1.350       .  A
C321        C329   1.389       .  A
C321        C337   1.428       .  A
C322        C338   1.423   1_556  A
C322        C330   1.386       .  A
C323        C331   1.394       .  A
C323        C340   1.426       .  A
C324        C339   1.407   1_554  A
C324        C332   1.380       .  A
C325        C337   1.425       .  A
C325        C333   1.389       .  A
C326        C340   1.423   1_556  A
C326        C334   1.385       .  A
C327        C335   1.389       .  A
C327        C338   1.414       .  A
C328        C336   1.383       .  A
C328        C339   1.404   1_554  A
C329        C330   1.374       .  A
C329        H341   1.081       .  S
C330        H342   1.081       .  S
C331        C332   1.376       .  A
C331        H983   1.077       .  S
C332       H1624   1.082       .  S
C333        C334   1.375       .  A
C333        H345   1.080       .  S
C334        H986   1.082       .  S
C335        C336   1.372       .  A
C335        H347   1.082       .  S
C336       H1628   1.082       .  S
C339       C1415   1.526   1_455  S
C340        C911   1.524       .  S
H343        C971   1.076   1_545  S
H344       C1612   1.083       .  S
H346        C974   1.082   1_545  S
H348       C1616   1.082       .  S
N351        C356   1.359       .  A
N351        C355   1.354       .  A
N351        H383   1.041       .  S
N352        C359   1.352       .  A
N352        C360   1.355       .  A
N353        C358   1.348       .  A
N353        C357   1.360       .  A
N353        H384   1.044       .  S
N354        C361   1.350       .  A
N354        C362   1.348       .  A
C355        C363   1.390       .  A
C355        C371   1.424       .  A
C356        C372   1.422       .  A
C356        C364   1.385       .  A
C357        C365   1.394       .  A
C357        C374   1.431       .  A
C358        C373   1.410       .  A
C358        C366   1.380       .  A
C359        C371   1.419       .  A
C359        C367   1.389       .  A
C360        C374   1.420       .  A
C360        C368   1.385       .  A
C361        C369   1.390       .  A
C361        C372   1.417       .  A
C362        C370   1.383       .  A
C362        C373   1.406       .  A
C363        C364   1.375       .  A
C363        H375   1.081       .  S
C364        H376   1.081       .  S
C365        C366   1.377       .  A
C365       H1657   1.076       .  S
C366       H1018   1.082       .  S
C367        C368   1.378       .  A
C367        H379   1.082       .  S
C368       H1660   1.082       .  S
C369        C370   1.367       .  A
C369        H381   1.081       .  S
C370       H1022   1.082       .  S
C373        C945   1.521       .  S
C374       C1449   1.533   1_455  S
H377       C1645   1.081       .  S
H378       C1006   1.082   1_545  S
H380       C1648   1.082       .  S
H382       C1010   1.082   1_545  S
C385        C386   1.400       .  A
C385        C390   1.407       .  A
C385        H395   1.083       .  S
C386        C391   1.483       .  S
C386        C387   1.415       .  A
C387        C388   1.406       .  A
C387        C392   1.519       .  S
C388        C389   1.406       .  A
C388        H393   1.083       .  S
C389        C390   1.423       .  A
C390        C394   1.521       .  S
C391        C396   1.417       .  A
C391        C400   1.399       .  A
C392        F408   1.383       .  S
C392        F409   1.382       .  S
C392        F410   1.385       .  S
C394        F405   1.382       .  S
C394        F406   1.385       .  S
C394        F407   1.384       .  S
C396        C397   1.408       .  A
C396        C401   1.519       .  S
C397        C398   1.403       .  A
C397        H402   1.083       .  S
C398        C399   1.422       .  A
C399        C400   1.406       .  A
C399        C403   1.521       .  S
C400        H404   1.083       .  S
C401        F414   1.385       .  S
C401        F415   1.382       .  S
C401        F416   1.382       .  S
C403        F411   1.382       .  S
C403        F412   1.382       .  S
C403        F413   1.385       .  S
C417        C418   1.397       .  A
C417        C422   1.406       .  A
C417        H427   1.083       .  S
C418        C423   1.480       .  S
C418        C419   1.414       .  A
C419        C420   1.407       .  A
C419        C424   1.520       .  S
C420        C421   1.408       .  A
C420        H425   1.083       .  S
C421        C422   1.425       .  A
C422        C426   1.519       .  S
C423        C428   1.415       .  A
C423        C432   1.401       .  A
C424        F440   1.382       .  S
C424        F441   1.382       .  S
C424        F442   1.384       .  S
C426        F437   1.382       .  S
C426        F438   1.385       .  S
C426        F439   1.381       .  S
C428        C429   1.405       .  A
C428        C433   1.519       .  S
C429        C430   1.403       .  A
C429        H434   1.083       .  S
C430        C431   1.415       .  A
C431        C432   1.405       .  A
C431        C435   1.515       .  S
C432        H436   1.083       .  S
C433        F446   1.385       .  S
C433        F447   1.383       .  S
C433        F448   1.382       .  S
C435        F443   1.385       .  S
C435        F444   1.383       .  S
C435        F445   1.382       .  S
C449        C450   1.398       .  A
C449        C454   1.408       .  A
C449        H459   1.083       .  S
C450        C455   1.483       .  S
C450        C451   1.414       .  A
C451        C452   1.408       .  A
C451        C456   1.520       .  S
C452        C453   1.407       .  A
C452        H457   1.083       .  S
C453        C454   1.428       .  A
C454        C458   1.522       .  S
C455        C460   1.415       .  A
C455        C464   1.402       .  A
C456        F472   1.382       .  S
C456        F473   1.382       .  S
C456        F474   1.384       .  S
C458        F469   1.385       .  S
C458        F470   1.383       .  S
C458        F471   1.383       .  S
C460        C461   1.407       .  A
C460        C465   1.520       .  S
C461        C462   1.404       .  A
C461        H466   1.083       .  S
C462        C463   1.417       .  A
C463        C464   1.407       .  A
C463        C467   1.516       .  S
C464        H468   1.083       .  S
C465        F478   1.385       .  S
C465        F479   1.383       .  S
C465        F480   1.382       .  S
C467        F475   1.382       .  S
C467        F476   1.383       .  S
C467        F477   1.385       .  S
C481        C482   1.400       .  A
C481        C486   1.408       .  A
C481        H491   1.083       .  S
C482        C487   1.486       .  S
C482        C483   1.416       .  A
C483        C484   1.410       .  A
C483        C488   1.520       .  S
C484        C485   1.407       .  A
C484        H489   1.083       .  S
C485        C486   1.424       .  A
C486        C490   1.522       .  S
C487        C492   1.416       .  A
C487        C496   1.402       .  A
C488        F504   1.382       .  S
C488        F505   1.381       .  S
C488        F506   1.384       .  S
C490        F501   1.384       .  S
C490        F502   1.383       .  S
C490        F503   1.383       .  S
C492        C493   1.409       .  A
C492        C497   1.520       .  S
C493        C494   1.405       .  A
C493        H498   1.083       .  S
C494        C495   1.419       .  A
C495        C496   1.407       .  A
C495        C499   1.519       .  S
C496        H500   1.083       .  S
C497        F510   1.385       .  S
C497        F511   1.382       .  S
C497        F512   1.381       .  S
C499        F507   1.383       .  S
C499        F508   1.383       .  S
C499        F509   1.384       .  S
C513        C514   1.397       .  A
C513        C518   1.405       .  A
C513        H523   1.083       .  S
C514        C519   1.478       .  S
C514        C515   1.412       .  A
C515        C516   1.405       .  A
C515        C520   1.520       .  S
C516        C517   1.409       .  A
C516        H521   1.083       .  S
C517        C518   1.426       .  A
C518        C522   1.519       .  S
C519        C524   1.416       .  A
C519        C528   1.401       .  A
C520        F536   1.383       .  S
C520        F537   1.381       .  S
C520        F538   1.385       .  S
C522        F533   1.385       .  S
C522        F534   1.383       .  S
C522        F535   1.380       .  S
C524        C525   1.405       .  A
C524        C529   1.520       .  S
C525        C526   1.402       .  A
C525        H530   1.084       .  S
C526        C527   1.416       .  A
C527        C528   1.405       .  A
C527        C531   1.518       .  S
C528        H532   1.083       .  S
C529        F542   1.385       .  S
C529        F543   1.382       .  S
C529        F544   1.382       .  S
C531        F539   1.382       .  S
C531        F540   1.383       .  S
C531        F541   1.385       .  S
C545        C546   1.399       .  A
C545        C550   1.405       .  A
C545        H555   1.083       .  S
C546        C551   1.484       .  S
C546        C547   1.416       .  A
C547        C548   1.408       .  A
C547        C552   1.519       .  S
C548        C549   1.405       .  A
C548        H553   1.083       .  S
C549        C550   1.423       .  A
C550        C554   1.521       .  S
C551        C556   1.416       .  A
C551        C560   1.400       .  A
C552        F568   1.382       .  S
C552        F569   1.383       .  S
C552        F570   1.385       .  S
C554        F565   1.383       .  S
C554        F566   1.385       .  S
C554        F567   1.383       .  S
C556        C557   1.407       .  A
C556        C561   1.520       .  S
C557        C558   1.405       .  A
C557        H562   1.083       .  S
C558        C559   1.423       .  A
C559        C560   1.407       .  A
C559        C563   1.521       .  S
C560        H564   1.083       .  S
C561        F574   1.384       .  S
C561        F575   1.382       .  S
C561        F576   1.383       .  S
C563        F571   1.385       .  S
C563        F572   1.384       .  S
C563        F573   1.383       .  S
C577        C578   1.401       .  A
C577        C582   1.406       .  A
C577        H587   1.083       .  S
C578        C583   1.485       .  S
C578        C579   1.416       .  A
C579        C580   1.408       .  A
C579        C584   1.519       .  S
C580        C581   1.405       .  A
C580        H585   1.083       .  S
C581        C582   1.421       .  A
C582        C586   1.521       .  S
C583        C588   1.416       .  A
C583        C592   1.402       .  A
C584        F600   1.382       .  S
C584        F601   1.382       .  S
C584        F602   1.385       .  S
C586        F597   1.385       .  S
C586        F598   1.382       .  S
C586        F599   1.384       .  S
C588        C589   1.408       .  A
C588        C593   1.520       .  S
C589        C590   1.404       .  A
C589        H594   1.083       .  S
C590        C591   1.418       .  A
C591        C592   1.407       .  A
C591        C595   1.519       .  S
C592        H596   1.083       .  S
C593        F606   1.384       .  S
C593        F607   1.382       .  S
C593        F608   1.382       .  S
C595        F603   1.382       .  S
C595        F604   1.383       .  S
C595        F605   1.385       .  S
C609        C610   1.402       .  A
C609        C614   1.405       .  A
C609        H619   1.083       .  S
C610        C615   1.483       .  S
C610        C611   1.416       .  A
C611        C612   1.407       .  A
C611        C616   1.519       .  S
C612        C613   1.403       .  A
C612        H617   1.083       .  S
C613        C614   1.417       .  A
C614        C618   1.519       .  S
C615        C620   1.415       .  A
C615        C624   1.402       .  A
C616        F632   1.382       .  S
C616        F633   1.382       .  S
C616        F634   1.385       .  S
C618        F629   1.385       .  S
C618        F630   1.382       .  S
C618        F631   1.384       .  S
C620        C621   1.406       .  A
C620        C625   1.521       .  S
C621        C622   1.404       .  A
C621        H626   1.083       .  S
C622        C623   1.419       .  A
C623        C624   1.407       .  A
C623        C627   1.520       .  S
C624        H628   1.083       .  S
C625        F638   1.384       .  S
C625        F639   1.382       .  S
C625        F640   1.382       .  S
C627        F635   1.382       .  S
C627        F636   1.384       .  S
C627        F637   1.385       .  S
O641       Ni649   1.925       .  S
O641        C651   1.281       .  A
O642       Ni649   1.918   1_554  S
O642        C652   1.281       .  A
O643       Ni649   1.928       .  S
O643        C653   1.284       .  A
O644       Ni649   1.929       .  S
O644        C654   1.283       .  A
O645       Ni650   1.924       .  S
O645        C654   1.283       .  A
O646       Ni650   1.927       .  S
O646        C653   1.283       .  A
O647       Ni650   1.918   1_554  S
O647        C652   1.280       .  A
O648       Ni650   1.916       .  S
O648        C651   1.280       .  A
Ni649      Ni650   2.380       .  S
C651       C1230   1.478       .  S
C652       C1253   1.479       .  S
C653        C773   1.510       .  S
C654        C977   1.514       .  S
O655       Ni663   1.915       .  S
O655        C665   1.281       .  A
O656       Ni663   1.906       .  S
O656        C666   1.277       .  A
O657       Ni663   1.911       .  S
O657        C667   1.279       .  A
O658       Ni663   1.906       .  S
O658        C668   1.280       .  A
O659       Ni664   1.927       .  S
O659        C668   1.282       .  A
O660       Ni664   1.924       .  S
O660        C667   1.283       .  A
O661       Ni664   1.923       .  S
O661        C666   1.283       .  A
O662       Ni664   1.914       .  S
O662        C665   1.279       .  A
Ni663      Ni664   2.378       .  S
C665       C1262   1.478       .  S
C666       C1221   1.486       .  S
C667        C807   1.502       .  S
C668       C1012   1.505       .  S
O669       Ni677   1.908       .  S
O669        C679   1.279       .  A
O670       Ni677   1.915       .  S
O670        C680   1.280       .  A
O671       Ni677   1.917       .  S
O671        C681   1.281       .  A
O672       Ni677   1.928   1_554  S
O672        C682   1.284       .  A
O673       Ni678   1.907   1_554  S
O673        C682   1.277       .  A
O674       Ni678   1.918       .  S
O674        C681   1.280       .  A
O675       Ni678   1.925       .  S
O675        C680   1.284       .  A
O676       Ni678   1.927       .  S
O676        C679   1.284       .  A
Ni677      Ni678   2.384       .  S
C679        C842   1.494       .  S
C680        C774   1.503       .  S
C681       C1157   1.477       .  S
C682       C1189   1.477       .  S
O683       Ni691   1.918       .  S
O683        C693   1.279       .  A
O684       Ni691   1.922       .  S
O684        C694   1.283       .  A
O685       Ni691   1.916       .  S
O685        C695   1.280       .  A
O686       Ni691   1.911       .  S
O686        C696   1.281       .  A
O687       Ni692   1.928       .  S
O687        C696   1.283       .  A
O688       Ni692   1.930       .  S
O688        C695   1.284       .  A
O689       Ni692   1.911       .  S
O689        C694   1.278       .  A
O690       Ni692   1.918       .  S
O690        C693   1.282       .  A
Ni691      Ni692   2.377       .  S
C693       C1166   1.485       .  S
C694       C1198   1.489       .  S
C695        C808   1.508       .  S
C696        C876   1.506       .  S
O697       Ni705   1.919       .  S
O697        C707   1.281       .  A
O698       Ni705   1.914   1_556  S
O698        C708   1.279       .  A
O699       Ni705   1.897       .  S
O699        C709   1.278       .  A
O700       Ni705   1.905       .  S
O700        C710   1.277       .  A
O701       Ni706   1.927       .  S
O701        C710   1.285       .  A
O702       Ni706   1.929       .  S
O702        C709   1.283       .  A
O703       Ni706   1.924   1_556  S
O703        C708   1.282       .  A
O704       Ni706   1.915       .  S
O704        C707   1.280       .  A
Ni705      Ni706   2.380       .  S
C707       C1134   1.481       .  S
C708       C1093   1.481       .  S
C709        C841   1.502       .  S
C710        C910   1.500       .  S
O711       Ni719   1.928       .  S
O711        C721   1.283       .  A
O712       Ni719   1.919       .  S
O712        C722   1.281       .  A
O713       Ni719   1.922       .  S
O713        C723   1.282       .  A
O714       Ni719   1.923       .  S
O714        C724   1.282       .  A
O715       Ni720   1.922       .  S
O715        C724   1.283       .  A
O716       Ni720   1.919       .  S
O716        C723   1.283       .  A
O717       Ni720   1.921       .  S
O717        C722   1.282       .  A
O718       Ni720   1.908       .  S
O718        C721   1.279       .  A
Ni719      Ni720   2.382       .  S
C721       C1102   1.482       .  S
C722       C1125   1.484       .  S
C723        C875   1.499       .  S
C724        C944   1.505       .  S
O725       Ni733   1.916       .  S
O725        C735   1.280       .  A
O726       Ni733   1.902   1_556  S
O726        C736   1.277       .  A
O727       Ni733   1.908       .  S
O727        C737   1.278       .  A
O728       Ni733   1.910       .  S
O728        C738   1.281       .  A
O729       Ni734   1.923       .  S
O729        C738   1.282       .  A
O730       Ni734   1.921       .  S
O730        C737   1.283       .  A
O731       Ni734   1.928   1_556  S
O731        C736   1.283       .  A
O732       Ni734   1.917       .  S
O732        C735   1.281       .  A
Ni733      Ni734   2.383       .  S
C735       C1061   1.478       .  S
C736       C1038   1.480       .  S
C737        C909   1.497       .  S
C738        C978   1.496       .  S
O739       Ni747   1.918       .  S
O739        C749   1.282       .  A
O740       Ni747   1.926       .  S
O740        C750   1.284       .  A
O741       Ni747   1.923       .  S
O741        C751   1.282       .  A
O742       Ni747   1.924       .  S
O742        C752   1.282       .  A
O743       Ni748   1.921       .  S
O743        C752   1.282       .  A
O744       Ni748   1.919       .  S
O744        C751   1.282       .  A
O745       Ni748   1.907       .  S
O745        C750   1.277       .  A
O746       Ni748   1.924       .  S
O746        C749   1.281       .  A
Ni747      Ni748   2.380       .  S
C749       C1070   1.490       .  S
C750       C1029   1.483       .  S
C751       C1011   1.500       .  S
C752        C943   1.506       .  S
N753        C758   1.355       .  A
N753        C757   1.358       .  A
N753        H785   1.044       .  S
N754        C761   1.354       .  A
N754        C762   1.350       .  A
N755        C760   1.350       .  A
N755        C759   1.350       .  A
N755        H786   1.044   1_556  S
N756        C763   1.354       .  A
N756        C764   1.353       .  A
C757        C765   1.387   1_556  A
C757        C773   1.423       .  A
C758        C774   1.423       .  A
C758        C766   1.388   1_556  A
C759        C767   1.385       .  A
C759        C776   1.404       .  A
C760        C775   1.408       .  A
C760        C768   1.387       .  A
C761        C773   1.418       .  A
C761        C769   1.388       .  A
C762        C776   1.414       .  A
C762        C770   1.385       .  A
C763        C771   1.388       .  A
C763        C774   1.418       .  A
C764        C772   1.385       .  A
C764        C775   1.416       .  A
C765        C766   1.378       .  A
C765        H777   1.081       .  S
C766        H778   1.082       .  S
C767        C768   1.368       .  A
C768       H2060   1.082       .  S
C769        C770   1.374       .  A
C769        H781   1.081       .  S
C771        C772   1.370       .  A
C771        H783   1.080       .  S
C772       H2064   1.082       .  S
C775       C2259   1.517   1_556  S
H780       C2048   1.082       .  S
H784       C2052   1.082   1_455  S
N787        C792   1.361       .  A
N787        C791   1.358       .  A
N787        H819   1.044       .  S
N788        C795   1.349       .  A
N788        C796   1.354       .  A
N789        C794   1.358       .  A
N789        C793   1.357       .  A
N789        H820   1.045       .  S
N790        C797   1.350       .  A
N790        C798   1.353       .  A
C791        C799   1.388       .  A
C791        C807   1.425       .  A
C792        C808   1.425       .  A
C792        C800   1.387       .  A
C793        C801   1.388       .  A
C793        C810   1.408       .  A
C794        C809   1.406       .  A
C794        C802   1.385       .  A
C795        C807   1.423       .  A
C795        C803   1.395       .  A
C796        C810   1.413       .  A
C796        C804   1.380       .  A
C797        C805   1.393       .  A
C797        C808   1.423       .  A
C798        C806   1.382       .  A
C798        C809   1.414       .  A
C799        C800   1.375       .  A
C799        H811   1.082       .  S
C800        H812   1.082       .  S
C801        C802   1.362       .  A
C802       H2094   1.083       .  S
C803        C804   1.376       .  A
C803        H815   1.080       .  S
C805        C806   1.377       .  A
C805        H817   1.080       .  S
C806       H2098   1.082       .  S
C809       C2294   1.526       .  S
H814       C2082   1.083       .  S
H818       C2086   1.082   1_455  S
N821        C826   1.355   1_556  A
N821        C825   1.355   1_556  A
N821        H853   1.041       .  S
N822        C829   1.351       .  A
N822        C830   1.352       .  A
N823        C828   1.358   1_556  A
N823        C827   1.346   1_556  A
N823        H854   1.044       .  S
N824        C831   1.349       .  A
N824        C832   1.350       .  A
C825        C833   1.385       .  A
C825        C841   1.416       .  A
C826        C842   1.422   1_554  A
C826        C834   1.389       .  A
C827        C835   1.382       .  A
C827        C844   1.409       .  A
C828        C843   1.426       .  A
C828        C836   1.393       .  A
C829        C841   1.419       .  A
C829        C837   1.391       .  A
C830        C844   1.407       .  A
C830        C838   1.382       .  A
C831        C839   1.387       .  A
C831        C842   1.413       .  A
C832        C840   1.386       .  A
C832        C843   1.415   1_556  A
C833        C834   1.375       .  A
C833        H845   1.082       .  S
C834        H846   1.081       .  S
C835        C836   1.377       .  A
C835        H847   1.082       .  S
C836       H2128   1.077       .  S
C837        C838   1.364       .  A
C837        H849   1.081       .  S
C838        H850   1.082       .  S
C839        C840   1.378       .  A
C839        H851   1.082       .  S
C840       H2132   1.082       .  S
C843       C2192   1.521       .  S
H848       C2116   1.076       .  S
H852       C2120   1.082       .  S
N855        C860   1.357       .  A
N855        C859   1.355       .  A
N855        H887   1.041       .  S
N856        C863   1.354       .  A
N856        C864   1.354       .  A
N857        C862   1.351       .  A
N857        C861   1.359       .  A
N857        H888   1.043       .  S
N858        C865   1.353       .  A
N858        C866   1.351       .  A
C859        C867   1.389       .  A
C859        C875   1.422       .  A
C860        C876   1.417       .  A
C860        C868   1.384       .  A
C861        C869   1.391       .  A
C861        C878   1.428       .  A
C862        C877   1.408       .  A
C862        C870   1.378       .  A
C863        C875   1.420       .  A
C863        C871   1.388       .  A
C864        C878   1.420       .  A
C864        C872   1.386       .  A
C865        C873   1.388       .  A
C865        C876   1.417       .  A
C866        C874   1.383       .  A
C866        C877   1.410       .  A
C867        C868   1.373       .  A
C867        H879   1.081       .  S
C868        H880   1.081       .  S
C869        C870   1.373       .  A
C869        H881   1.074       .  S
C870       H2162   1.079       .  S
C871        C872   1.377       .  A
C871        H883   1.082       .  S
C872        H884   1.082       .  S
C873        C874   1.367       .  A
C873        H885   1.081       .  S
C874       H2166   1.082       .  S
C877       C2226   1.516       .  S
H882       C2150   1.082   1_455  S
H886       C2154   1.082   1_455  S
N889        C894   1.357       .  A
N889        C893   1.355       .  A
N889        H921   1.044       .  S
N890        C897   1.350       .  A
N890        C898   1.353       .  A
N891        C896   1.356       .  A
N891        C895   1.357       .  A
N891        H922   1.045   1_554  S
N892        C899   1.348       .  A
N892        C900   1.351       .  A
C893        C901   1.387   1_554  A
C893        C909   1.418       .  A
C894        C910   1.420       .  A
C894        C902   1.388   1_554  A
C895        C903   1.386       .  A
C895        C912   1.404       .  A
C896        C911   1.405       .  A
C896        C904   1.386       .  A
C897        C909   1.419       .  A
C897        C905   1.392       .  A
C898        C912   1.413       .  A
C898        C906   1.382       .  A
C899        C907   1.394       .  A
C899        C910   1.422       .  A
C900        C908   1.381       .  A
C900        C911   1.411       .  A
C901        C902   1.373       .  A
C901        H913   1.082       .  S
C902        H914   1.082       .  S
C903        C904   1.362       .  A
C903       H2195   1.083       .  S
C904        H916   1.083       .  S
C905        C906   1.375       .  A
C905        H917   1.079       .  S
C906       H2198   1.082   1_455  S
C907        C908   1.377       .  A
C907        H919   1.079       .  S
C908        H920   1.082       .  S
C912       C2123   1.526   1_455  S
H915       C2183   1.083       .  S
H918       C2186   1.082       .  S
N923        C928   1.357       .  A
N923        C927   1.356       .  A
N923        H955   1.043       .  S
N924        C931   1.355       .  A
N924        C932   1.354       .  A
N925        C930   1.349       .  A
N925        C929   1.350       .  A
N925        H956   1.044       .  S
N926        C933   1.354       .  A
N926        C934   1.351       .  A
C927        C935   1.388       .  A
C927        C943   1.423       .  A
C928        C944   1.419       .  A
C928        C936   1.385       .  A
C929        C937   1.386       .  A
C929        C946   1.406       .  A
C930        C945   1.404       .  A
C930        C938   1.386       .  A
C931        C943   1.421       .  A
C931        C939   1.388       .  A
C932        C946   1.421       .  A
C932        C940   1.386       .  A
C933        C941   1.388       .  A
C933        C944   1.419       .  A
C934        C942   1.384       .  A
C934        C945   1.416       .  A
C935        C936   1.372       .  A
C935        H947   1.077       .  S
C936        H948   1.082       .  S
C937        C938   1.369       .  A
C937       H2229   1.082       .  S
C938        H950   1.082       .  S
C939        C940   1.374       .  A
C939        H951   1.081       .  S
C940       H2232   1.082       .  S
C941        C942   1.372       .  A
C941        H953   1.079       .  S
C942        H954   1.082       .  S
C946       C2157   1.527   1_455  S
H949       C2217   1.083       .  S
H952       C2220   1.082       .  S
N957        C962   1.357       .  A
N957        C961   1.356       .  A
N957        H989   1.042   1_556  S
N958        C965   1.356       .  A
N958        C966   1.357       .  A
N959        C964   1.351   1_556  A
N959        C963   1.358   1_556  A
N959        H990   1.044       .  S
N960        C967   1.351       .  A
N960        C968   1.350       .  A
C961        C969   1.390       .  A
C961        C977   1.425       .  A
C962        C978   1.418   1_556  A
C962        C970   1.385       .  A
C963        C971   1.394       .  A
C963        C980   1.428       .  A
C964        C979   1.409       .  A
C964        C972   1.380       .  A
C965        C977   1.426       .  A
C965        C973   1.387       .  A
C966        C980   1.428   1_556  A
C966        C974   1.386       .  A
C967        C975   1.389       .  A
C967        C978   1.413       .  A
C968        C976   1.384       .  A
C968        C979   1.407       .  A
C969        C970   1.373       .  A
C969        H981   1.081       .  S
C970        H982   1.081       .  S
C971        C972   1.374       .  A
C972       H2264   1.082   1_455  S
C973        C974   1.375       .  A
C973        H985   1.081       .  S
C975        C976   1.371       .  A
C975        H987   1.082       .  S
C976       H2268   1.082       .  S
C979       C2055   1.529   1_454  S
H984       C2252   1.082       .  S
H988       C2256   1.082       .  S
N991        C996   1.357       .  A
N991        C995   1.355       .  A
N991       H1023   1.041       .  S
N992        C999   1.353       .  A
N992       C1000   1.355       .  A
N993        C998   1.348       .  A
N993        C997   1.358       .  A
N993       H1024   1.044       .  S
N994       C1001   1.351       .  A
N994       C1002   1.351       .  A
C995       C1003   1.389       .  A
C995       C1011   1.423       .  A
C996       C1012   1.420       .  A
C996       C1004   1.386       .  A
C997       C1005   1.394       .  A
C997       C1014   1.428       .  A
C998       C1013   1.407       .  A
C998       C1006   1.380       .  A
C999       C1011   1.420       .  A
C999       C1007   1.388       .  A
C1000      C1014   1.422       .  A
C1000      C1008   1.386       .  A
C1001      C1009   1.390       .  A
C1001      C1012   1.419       .  A
C1002      C1010   1.382       .  A
C1002      C1013   1.408       .  A
C1003      C1004   1.374       .  A
C1003      H1015   1.081       .  S
C1004      H1016   1.081       .  S
C1005      C1006   1.375       .  A
C1005      H2297   1.076       .  S
C1007      C1008   1.378       .  A
C1007      H1019   1.082       .  S
C1008      H2300   1.082       .  S
C1009      C1010   1.367       .  A
C1009      H1021   1.081       .  S
C1014      C2089   1.528   1_455  S
H1017      C2285   1.077       .  S
H1020      C2288   1.082       .  S
C1025      C1026   1.400       .  A
C1025      C1030   1.406       .  A
C1025      H1035   1.083       .  S
C1026      C1031   1.482       .  S
C1026      C1027   1.415       .  A
C1027      C1028   1.407       .  A
C1027      C1032   1.519       .  S
C1028      C1029   1.406       .  A
C1028      H1033   1.083       .  S
C1029      C1030   1.422       .  A
C1030      C1034   1.521       .  S
C1031      C1036   1.417       .  A
C1031      C1040   1.398       .  A
C1032      F1048   1.382       .  S
C1032      F1049   1.381       .  S
C1032      F1050   1.384       .  S
C1034      F1045   1.382       .  S
C1034      F1046   1.385       .  S
C1034      F1047   1.384       .  S
C1036      C1037   1.410       .  A
C1036      C1041   1.520       .  S
C1037      C1038   1.405       .  A
C1037      H1042   1.083       .  S
C1038      C1039   1.421       .  A
C1039      C1040   1.403       .  A
C1039      C1043   1.521       .  S
C1040      H1044   1.083       .  S
C1041      F1054   1.385       .  S
C1041      F1055   1.382       .  S
C1041      F1056   1.382       .  S
C1043      F1051   1.383       .  S
C1043      F1052   1.382       .  S
C1043      F1053   1.384       .  S
C1057      C1058   1.401       .  A
C1057      C1062   1.406       .  A
C1057      H1067   1.083       .  S
C1058      C1063   1.482       .  S
C1058      C1059   1.416       .  A
C1059      C1060   1.407       .  A
C1059      C1064   1.520       .  S
C1060      C1061   1.404       .  A
C1060      H1065   1.083       .  S
C1061      C1062   1.418       .  A
C1062      C1066   1.519       .  S
C1063      C1068   1.413       .  A
C1063      C1072   1.399       .  A
C1064      F1080   1.382       .  S
C1064      F1081   1.382       .  S
C1064      F1082   1.385       .  S
C1066      F1077   1.382       .  S
C1066      F1078   1.384       .  S
C1066      F1079   1.383       .  S
C1068      C1069   1.407       .  A
C1068      C1073   1.519       .  S
C1069      C1070   1.408       .  A
C1069      H1074   1.083       .  S
C1070      C1071   1.422       .  A
C1071      C1072   1.406       .  A
C1071      C1075   1.516       .  S
C1072      H1076   1.083       .  S
C1073      F1086   1.385       .  S
C1073      F1087   1.382       .  S
C1073      F1088   1.382       .  S
C1075      F1083   1.385       .  S
C1075      F1084   1.380       .  S
C1075      F1085   1.382       .  S
C1089      C1090   1.401       .  A
C1089      C1094   1.407       .  A
C1089      H1099   1.083       .  S
C1090      C1095   1.486       .  S
C1090      C1091   1.417       .  A
C1091      C1092   1.408       .  A
C1091      C1096   1.520       .  S
C1092      C1093   1.403       .  A
C1092      H1097   1.083       .  S
C1093      C1094   1.420       .  A
C1094      C1098   1.520       .  S
C1095      C1100   1.417       .  A
C1095      C1104   1.401       .  A
C1096      F1112   1.382       .  S
C1096      F1113   1.382       .  S
C1096      F1114   1.385       .  S
C1098      F1109   1.385       .  S
C1098      F1110   1.382       .  S
C1098      F1111   1.383       .  S
C1100      C1101   1.407       .  A
C1100      C1105   1.520       .  S
C1101      C1102   1.405       .  A
C1101      H1106   1.083       .  S
C1102      C1103   1.418       .  A
C1103      C1104   1.407       .  A
C1103      C1107   1.517       .  S
C1104      H1108   1.083       .  S
C1105      F1118   1.385       .  S
C1105      F1119   1.382       .  S
C1105      F1120   1.382       .  S
C1107      F1115   1.382       .  S
C1107      F1116   1.383       .  S
C1107      F1117   1.385       .  S
C1121      C1122   1.402       .  A
C1121      C1126   1.408       .  A
C1121      H1131   1.083       .  S
C1122      C1127   1.484       .  S
C1122      C1123   1.415       .  A
C1123      C1124   1.408       .  A
C1123      C1128   1.520       .  S
C1124      C1125   1.405       .  A
C1124      H1129   1.083       .  S
C1125      C1126   1.421       .  A
C1126      C1130   1.520       .  S
C1127      C1132   1.416       .  A
C1127      C1136   1.401       .  A
C1128      F1144   1.382       .  S
C1128      F1145   1.381       .  S
C1128      F1146   1.384       .  S
C1130      F1141   1.385       .  S
C1130      F1142   1.382       .  S
C1130      F1143   1.383       .  S
C1132      C1133   1.408       .  A
C1132      C1137   1.520       .  S
C1133      C1134   1.406       .  A
C1133      H1138   1.083       .  S
C1134      C1135   1.419       .  A
C1135      C1136   1.406       .  A
C1135      C1139   1.519       .  S
C1136      H1140   1.083       .  S
C1137      F1150   1.385       .  S
C1137      F1151   1.382       .  S
C1137      F1152   1.381       .  S
C1139      F1147   1.382       .  S
C1139      F1148   1.383       .  S
C1139      F1149   1.384       .  S
C1153      C1154   1.401       .  A
C1153      C1158   1.404       .  A
C1153      H1163   1.083       .  S
C1154      C1159   1.482       .  S
C1154      C1155   1.416       .  A
C1155      C1156   1.408       .  A
C1155      C1160   1.520       .  S
C1156      C1157   1.404       .  A
C1156      H1161   1.083       .  S
C1157      C1158   1.417       .  A
C1158      C1162   1.517       .  S
C1159      C1164   1.414       .  A
C1159      C1168   1.402       .  A
C1160      F1176   1.382       .  S
C1160      F1177   1.381       .  S
C1160      F1178   1.385       .  S
C1162      F1173   1.385       .  S
C1162      F1174   1.380       .  S
C1162      F1175   1.383       .  S
C1164      C1165   1.405       .  A
C1164      C1169   1.520       .  S
C1165      C1166   1.405       .  A
C1165      H1170   1.083       .  S
C1166      C1167   1.423       .  A
C1167      C1168   1.409       .  A
C1167      C1171   1.521       .  S
C1168      H1172   1.083       .  S
C1169      F1182   1.385       .  S
C1169      F1183   1.382       .  S
C1169      F1184   1.382       .  S
C1171      F1179   1.382       .  S
C1171      F1180   1.383       .  S
C1171      F1181   1.385       .  S
C1185      C1186   1.401       .  A
C1185      C1190   1.406       .  A
C1185      H1195   1.083       .  S
C1186      C1191   1.484       .  S
C1186      C1187   1.416       .  A
C1187      C1188   1.407       .  A
C1187      C1192   1.519       .  S
C1188      C1189   1.403       .  A
C1188      H1193   1.083       .  S
C1189      C1190   1.419       .  A
C1190      C1194   1.520       .  S
C1191      C1196   1.415       .  A
C1191      C1200   1.400       .  A
C1192      F1208   1.382       .  S
C1192      F1209   1.382       .  S
C1192      F1210   1.385       .  S
C1194      F1205   1.382       .  S
C1194      F1206   1.385       .  S
C1194      F1207   1.383       .  S
C1196      C1197   1.406       .  A
C1196      C1201   1.520       .  S
C1197      C1198   1.407       .  A
C1197      H1202   1.083       .  S
C1198      C1199   1.425       .  A
C1199      C1200   1.408       .  A
C1199      C1203   1.521       .  S
C1200      H1204   1.083       .  S
C1201      F1214   1.385       .  S
C1201      F1215   1.382       .  S
C1201      F1216   1.382       .  S
C1203      F1211   1.385       .  S
C1203      F1212   1.384       .  S
C1203      F1213   1.383       .  S
C1217      C1218   1.399       .  A
C1217      C1222   1.406       .  A
C1217      H1227   1.083       .  S
C1218      C1223   1.483       .  S
C1218      C1219   1.415       .  A
C1219      C1220   1.407       .  A
C1219      C1224   1.520       .  S
C1220      C1221   1.407       .  A
C1220      H1225   1.083       .  S
C1221      C1222   1.424       .  A
C1222      C1226   1.522       .  S
C1223      C1228   1.416       .  A
C1223      C1232   1.402       .  A
C1224      F1240   1.382       .  S
C1224      F1241   1.381       .  S
C1224      F1242   1.385       .  S
C1226      F1237   1.385       .  S
C1226      F1238   1.383       .  S
C1226      F1239   1.384       .  S
C1228      C1229   1.407       .  A
C1228      C1233   1.520       .  S
C1229      C1230   1.403       .  A
C1229      H1234   1.083       .  S
C1230      C1231   1.417       .  A
C1231      C1232   1.408       .  A
C1231      C1235   1.518       .  S
C1232      H1236   1.083       .  S
C1233      F1246   1.384       .  S
C1233      F1247   1.383       .  S
C1233      F1248   1.381       .  S
C1235      F1243   1.382       .  S
C1235      F1244   1.383       .  S
C1235      F1245   1.385       .  S
C1249      C1250   1.401       .  A
C1249      C1254   1.406       .  A
C1249      H1259   1.083       .  S
C1250      C1255   1.481       .  S
C1250      C1251   1.415       .  A
C1251      C1252   1.407       .  A
C1251      C1256   1.520       .  S
C1252      C1253   1.404       .  A
C1252      H1257   1.083       .  S
C1253      C1254   1.419       .  A
C1254      C1258   1.519       .  S
C1255      C1260   1.415       .  A
C1255      C1264   1.401       .  A
C1256      F1272   1.382       .  S
C1256      F1273   1.382       .  S
C1256      F1274   1.384       .  S
C1258      F1269   1.385       .  S
C1258      F1270   1.382       .  S
C1258      F1271   1.383       .  S
C1260      C1261   1.405       .  A
C1260      C1265   1.520       .  S
C1261      C1262   1.404       .  A
C1261      H1266   1.083       .  S
C1262      C1263   1.419       .  A
C1263      C1264   1.406       .  A
C1263      C1267   1.520       .  S
C1264      H1268   1.083       .  S
C1265      F1278   1.385       .  S
C1265      F1279   1.382       .  S
C1265      F1280   1.382       .  S
C1267      F1275   1.382       .  S
C1267      F1276   1.384       .  S
C1267      F1277   1.385       .  S
O1281     Ni1289   1.922       .  S
O1281      C1291   1.281       .  A
O1282     Ni1289   1.915   1_554  S
O1282      C1292   1.280       .  A
O1283     Ni1289   1.933       .  S
O1283      C1293   1.285       .  A
O1284     Ni1289   1.929       .  S
O1284      C1294   1.284       .  A
O1285     Ni1290   1.921       .  S
O1285      C1294   1.282       .  A
O1286     Ni1290   1.925       .  S
O1286      C1293   1.283       .  A
O1287     Ni1290   1.917   1_554  S
O1287      C1292   1.280       .  A
O1288     Ni1290   1.914       .  S
O1288      C1291   1.280       .  A
Ni1289    Ni1290   2.380       .  S
C1291      C1870   1.479       .  S
C1292      C1893   1.479       .  S
C1293      C1413   1.511       .  S
C1294      C1617   1.512       .  S
O1295     Ni1303   1.922       .  S
O1295      C1305   1.282       .  A
O1296     Ni1303   1.913       .  S
O1296      C1306   1.279       .  A
O1297     Ni1303   1.925       .  S
O1297      C1307   1.282       .  A
O1298     Ni1303   1.923       .  S
O1298      C1308   1.282       .  A
O1299     Ni1304   1.925       .  S
O1299      C1308   1.284       .  A
O1300     Ni1304   1.929       .  S
O1300      C1307   1.284       .  A
O1301     Ni1304   1.921       .  S
O1301      C1306   1.281       .  A
O1302     Ni1304   1.917       .  S
O1302      C1305   1.280       .  A
Ni1303    Ni1304   2.379       .  S
C1305      C1902   1.480       .  S
C1306      C1861   1.479       .  S
C1307      C1447   1.514       .  S
C1308      C1652   1.510       .  S
O1309     Ni1317   1.923       .  S
O1309      C1319   1.283       .  A
O1310     Ni1317   1.924       .  S
O1310      C1320   1.283       .  A
O1311     Ni1317   1.918       .  S
O1311      C1321   1.281       .  A
O1312     Ni1317   1.926   1_554  S
O1312      C1322   1.283       .  A
O1313     Ni1318   1.907   1_554  S
O1313      C1322   1.277       .  A
O1314     Ni1318   1.919       .  S
O1314      C1321   1.280       .  A
O1315     Ni1318   1.923       .  S
O1315      C1320   1.282       .  A
O1316     Ni1318   1.929       .  S
O1316      C1319   1.284       .  A
Ni1317    Ni1318   2.382       .  S
C1319      C1482   1.504       .  S
C1320      C1414   1.509       .  S
C1321      C1797   1.481       .  S
C1322      C1829   1.476       .  S
O1323     Ni1331   1.912       .  S
O1323      C1333   1.279       .  A
O1324     Ni1331   1.923       .  S
O1324      C1334   1.283       .  A
O1325     Ni1331   1.909       .  S
O1325      C1335   1.278       .  A
O1326     Ni1331   1.907       .  S
O1326      C1336   1.279       .  A
O1327     Ni1332   1.937       .  S
O1327      C1336   1.285       .  A
O1328     Ni1332   1.935       .  S
O1328      C1335   1.286       .  A
O1329     Ni1332   1.914       .  S
O1329      C1334   1.279       .  A
O1330     Ni1332   1.924       .  S
O1330      C1333   1.282       .  A
Ni1331    Ni1332   2.375       .  S
C1333      C1806   1.483       .  S
C1334      C1838   1.491       .  S
C1335      C1448   1.511       .  S
C1336      C1516   1.512       .  S
O1337     Ni1345   1.922       .  S
O1337      C1347   1.281       .  A
O1338     Ni1345   1.911   1_556  S
O1338      C1348   1.280       .  A
O1339     Ni1345   1.904       .  S
O1339      C1349   1.280       .  A
O1340     Ni1345   1.902       .  S
O1340      C1350   1.277       .  A
O1341     Ni1346   1.930       .  S
O1341      C1350   1.285       .  A
O1342     Ni1346   1.930       .  S
O1342      C1349   1.283       .  A
O1343     Ni1346   1.922   1_556  S
O1343      C1348   1.281       .  A
O1344     Ni1346   1.915       .  S
O1344      C1347   1.280       .  A
Ni1345    Ni1346   2.381       .  S
C1347      C1774   1.479       .  S
C1348      C1733   1.481       .  S
C1349      C1481   1.507       .  S
C1350      C1550   1.497       .  S
O1351     Ni1359   1.929       .  S
O1351      C1361   1.283       .  A
O1352     Ni1359   1.914       .  S
O1352      C1362   1.279       .  A
O1353     Ni1359   1.923       .  S
O1353      C1363   1.282       .  A
O1354     Ni1359   1.926       .  S
O1354      C1364   1.282       .  A
O1355     Ni1360   1.916       .  S
O1355      C1364   1.282       .  A
O1356     Ni1360   1.918       .  S
O1356      C1363   1.282       .  A
O1357     Ni1360   1.922       .  S
O1357      C1362   1.282       .  A
O1358     Ni1360   1.911       .  S
O1358      C1361   1.279       .  A
Ni1359    Ni1360   2.381       .  S
C1361      C1742   1.485       .  S
C1362      C1765   1.480       .  S
C1363      C1515   1.503       .  S
C1364      C1584   1.506       .  S
O1365     Ni1373   1.918       .  S
O1365      C1375   1.280       .  A
O1366     Ni1373   1.905   1_556  S
O1366      C1376   1.277       .  A
O1367     Ni1373   1.915       .  S
O1367      C1377   1.280       .  A
O1368     Ni1373   1.916       .  S
O1368      C1378   1.283       .  A
O1369     Ni1374   1.925       .  S
O1369      C1378   1.282       .  A
O1370     Ni1374   1.919       .  S
O1370      C1377   1.283       .  A
O1371     Ni1374   1.924   1_556  S
O1371      C1376   1.283       .  A
O1372     Ni1374   1.915       .  S
O1372      C1375   1.281       .  A
Ni1373    Ni1374   2.383       .  S
C1375      C1701   1.482       .  S
C1376      C1678   1.477       .  S
C1377      C1549   1.500       .  S
C1378      C1618   1.499       .  S
O1379     Ni1387   1.914       .  S
O1379      C1389   1.280       .  A
O1380     Ni1387   1.921       .  S
O1380      C1390   1.283       .  A
O1381     Ni1387   1.917       .  S
O1381      C1391   1.282       .  A
O1382     Ni1387   1.921       .  S
O1382      C1392   1.281       .  A
O1383     Ni1388   1.928       .  S
O1383      C1392   1.284       .  A
O1384     Ni1388   1.930       .  S
O1384      C1391   1.284       .  A
O1385     Ni1388   1.913       .  S
O1385      C1390   1.279       .  A
O1386     Ni1388   1.923       .  S
O1386      C1389   1.281       .  A
Ni1387    Ni1388   2.381       .  S
C1389      C1710   1.481       .  S
C1390      C1669   1.487       .  S
C1391      C1651   1.500       .  S
C1392      C1583   1.507       .  S
N1393      C1398   1.357       .  A
N1393      C1397   1.360       .  A
N1393      H1425   1.044       .  S
N1394      C1401   1.354       .  A
N1394      C1402   1.350       .  A
N1395      C1400   1.352       .  A
N1395      C1399   1.350       .  A
N1395      H1426   1.043   1_556  S
N1396      C1403   1.355       .  A
N1396      C1404   1.355       .  A
C1397      C1405   1.386   1_556  A
C1397      C1413   1.424       .  A
C1398      C1414   1.424       .  A
C1398      C1406   1.388   1_556  A
C1399      C1407   1.385       .  A
C1399      C1416   1.406       .  A
C1400      C1415   1.412       .  A
C1400      C1408   1.388       .  A
C1401      C1413   1.419       .  A
C1401      C1409   1.389       .  A
C1402      C1416   1.415       .  A
C1402      C1410   1.385       .  A
C1403      C1411   1.389       .  A
C1403      C1414   1.423       .  A
C1404      C1412   1.384       .  A
C1404      C1415   1.420       .  A
C1405      C1406   1.376       .  A
C1405      H1417   1.082       .  S
C1406      H1418   1.081       .  S
C1407      C1408   1.370       .  A
C1407      H2059   1.082       .  S
C1409      C1410   1.374       .  A
C1409      H1421   1.081       .  S
C1410      H2062   1.082       .  S
C1411      C1412   1.370       .  A
C1411      H1423   1.079       .  S
C1416      C2124   1.521       .  S
H1419      C2047   1.082   1_545  S
H1422      C2050   1.082   1_545  S
N1427      C1432   1.360       .  A
N1427      C1431   1.363       .  A
N1427      H1459   1.044       .  S
N1428      C1435   1.350       .  A
N1428      C1436   1.353       .  A
N1429      C1434   1.356       .  A
N1429      C1433   1.355       .  A
N1429      H1460   1.044       .  S
N1430      C1437   1.353       .  A
N1430      C1438   1.360       .  A
C1431      C1439   1.387       .  A
C1431      C1447   1.430       .  A
C1432      C1448   1.427       .  A
C1432      C1440   1.388       .  A
C1433      C1441   1.385       .  A
C1433      C1450   1.402       .  A
C1434      C1449   1.401       .  A
C1434      C1442   1.387       .  A
C1435      C1447   1.426       .  A
C1435      C1443   1.395       .  A
C1436      C1450   1.417       .  A
C1436      C1444   1.381       .  A
C1437      C1445   1.394       .  A
C1437      C1448   1.429       .  A
C1438      C1446   1.381       .  A
C1438      C1449   1.419       .  A
C1439      C1440   1.375       .  A
C1439      H1451   1.081       .  S
C1440      H1452   1.081       .  S
C1441      C1442   1.362       .  A
C1441      H2093   1.083       .  S
C1443      C1444   1.379       .  A
C1443      H1455   1.079       .  S
C1444      H2096   1.082       .  S
C1445      C1446   1.374       .  A
C1445      H1457   1.080       .  S
C1450      C2158   1.523       .  S
H1453      C2081   1.083       .  S
H1456      C2084   1.082   1_545  S
N1461      C1466   1.356       .  A
N1461      C1465   1.356       .  A
N1461      H1493   1.041   1_554  S
N1462      C1469   1.352       .  A
N1462      C1470   1.354       .  A
N1463      C1468   1.359       .  A
N1463      C1467   1.349       .  A
N1463      H1494   1.044   1_554  S
N1464      C1471   1.353   1_554  A
N1464      C1472   1.353   1_554  A
C1465      C1473   1.387       .  A
C1465      C1481   1.422       .  A
C1466      C1482   1.423   1_554  A
C1466      C1474   1.388       .  A
C1467      C1475   1.381       .  A
C1467      C1484   1.411       .  A
C1468      C1483   1.429       .  A
C1468      C1476   1.394       .  A
C1469      C1481   1.423       .  A
C1469      C1477   1.391       .  A
C1470      C1484   1.411       .  A
C1470      C1478   1.382       .  A
C1471      C1479   1.387       .  A
C1471      C1482   1.418       .  A
C1472      C1480   1.386       .  A
C1472      C1483   1.419   1_556  A
C1473      C1474   1.377       .  A
C1473      H1485   1.081       .  S
C1474      H1486   1.081       .  S
C1475      C1476   1.376       .  A
C1475      H1487   1.082       .  S
C1477      C1478   1.366       .  A
C1477      H1489   1.081       .  S
C1478      H1490   1.082       .  S
C1479      C1480   1.378       .  A
C1479      H1491   1.082       .  S
C1484      C2056   1.527   1_544  S
N1495      C1500   1.359       .  A
N1495      C1499   1.356       .  A
N1495      H1527   1.041       .  S
N1496      C1503   1.352       .  A
N1496      C1504   1.354       .  A
N1497      C1502   1.347       .  A
N1497      C1501   1.359       .  A
N1497      H1528   1.044       .  S
N1498      C1505   1.353       .  A
N1498      C1506   1.353       .  A
C1499      C1507   1.389       .  A
C1499      C1515   1.426       .  A
C1500      C1516   1.422       .  A
C1500      C1508   1.385       .  A
C1501      C1509   1.392       .  A
C1501      C1518   1.426       .  A
C1502      C1517   1.412       .  A
C1502      C1510   1.383       .  A
C1503      C1515   1.420       .  A
C1503      C1511   1.389       .  A
C1504      C1518   1.419       .  A
C1504      C1512   1.385       .  A
C1505      C1513   1.391       .  A
C1505      C1516   1.423       .  A
C1506      C1514   1.382       .  A
C1506      C1517   1.410       .  A
C1507      C1508   1.374       .  A
C1507      H1519   1.081       .  S
C1508      H1520   1.081       .  S
C1509      C1510   1.378       .  A
C1509      H1521   1.077       .  S
C1511      C1512   1.377       .  A
C1511      H1523   1.081       .  S
C1512      H1524   1.082       .  S
C1513      C1514   1.366       .  A
C1513      H1525   1.080       .  S
C1518      C2090   1.525   1_545  S
N1529      C1534   1.358       .  A
N1529      C1533   1.356       .  A
N1529      H1561   1.044       .  S
N1530      C1537   1.350       .  A
N1530      C1538   1.354       .  A
N1531      C1536   1.356       .  A
N1531      C1535   1.357       .  A
N1531      H1562   1.045   1_554  S
N1532      C1539   1.346       .  A
N1532      C1540   1.350       .  A
C1533      C1541   1.388   1_554  A
C1533      C1549   1.421       .  A
C1534      C1550   1.420       .  A
C1534      C1542   1.386   1_554  A
C1535      C1543   1.385       .  A
C1535      C1552   1.402       .  A
C1536      C1551   1.406       .  A
C1536      C1544   1.387       .  A
C1537      C1549   1.420       .  A
C1537      C1545   1.392       .  A
C1538      C1552   1.415       .  A
C1538      C1546   1.382       .  A
C1539      C1547   1.395       .  A
C1539      C1550   1.420       .  A
C1540      C1548   1.379       .  A
C1540      C1551   1.407       .  A
C1541      C1542   1.375       .  A
C1541      H1553   1.082       .  S
C1542      H1554   1.082       .  S
C1543      C1544   1.361       .  A
C1544      H1556   1.083       .  S
C1545      C1546   1.374       .  A
C1545      H1557   1.079       .  S
C1547      C1548   1.376       .  A
C1547      H1559   1.079       .  S
C1548      H1560   1.082       .  S
C1551      C2260   1.520   1_545  S
N1563      C1568   1.355       .  A
N1563      C1567   1.356       .  A
N1563      H1595   1.044       .  S
N1564      C1571   1.355       .  A
N1564      C1572   1.354       .  A
N1565      C1570   1.351       .  A
N1565      C1569   1.351       .  A
N1565      H1596   1.043       .  S
N1566      C1573   1.355       .  A
N1566      C1574   1.351       .  A
C1567      C1575   1.387       .  A
C1567      C1583   1.419       .  A
C1568      C1584   1.419       .  A
C1568      C1576   1.387       .  A
C1569      C1577   1.386       .  A
C1569      C1586   1.409       .  A
C1570      C1585   1.407       .  A
C1570      C1578   1.386       .  A
C1571      C1583   1.421       .  A
C1571      C1579   1.387       .  A
C1572      C1586   1.422       .  A
C1572      C1580   1.387       .  A
C1573      C1581   1.388       .  A
C1573      C1584   1.419       .  A
C1574      C1582   1.385       .  A
C1574      C1585   1.416       .  A
C1575      C1576   1.374       .  A
C1575      H1587   1.079       .  S
C1576      H1588   1.082       .  S
C1577      C1578   1.369       .  A
C1578      H1590   1.082       .  S
C1579      C1580   1.376       .  A
C1579      H1591   1.081       .  S
C1581      C1582   1.373       .  A
C1581      H1593   1.080       .  S
C1582      H1594   1.082       .  S
C1585      C2293   1.522   1_545  S
N1597      C1602   1.360       .  A
N1597      C1601   1.357       .  A
N1597      H1629   1.042   1_556  S
N1598      C1605   1.354       .  A
N1598      C1606   1.356       .  A
N1599      C1604   1.349       .  A
N1599      C1603   1.357       .  A
N1599      H1630   1.043   1_554  S
N1600      C1607   1.349       .  A
N1600      C1608   1.347       .  A
C1601      C1609   1.389       .  A
C1601      C1617   1.427       .  A
C1602      C1618   1.422   1_556  A
C1602      C1610   1.385       .  A
C1603      C1611   1.395       .  A
C1603      C1620   1.428       .  A
C1604      C1619   1.408       .  A
C1604      C1612   1.380       .  A
C1605      C1617   1.424       .  A
C1605      C1613   1.388       .  A
C1606      C1620   1.424   1_556  A
C1606      C1614   1.385       .  A
C1607      C1615   1.389       .  A
C1607      C1618   1.411       .  A
C1608      C1616   1.384       .  A
C1608      C1619   1.403       .  A
C1609      C1610   1.375       .  A
C1609      H1621   1.081       .  S
C1610      H1622   1.081       .  S
C1611      C1612   1.375       .  A
C1611      H2263   1.076       .  S
C1613      C1614   1.373       .  A
C1613      H1625   1.080       .  S
C1614      H2266   1.082       .  S
C1615      C1616   1.372       .  A
C1615      H1627   1.082       .  S
C1620      C2191   1.523       .  S
H1623      C2251   1.077   1_545  S
H1626      C2254   1.082   1_545  S
N1631      C1636   1.356       .  A
N1631      C1635   1.357       .  A
N1631      H1663   1.041       .  S
N1632      C1639   1.353       .  A
N1632      C1640   1.351       .  A
N1633      C1638   1.358       .  A
N1633      C1637   1.353       .  A
N1633      H1664   1.042       .  S
N1634      C1641   1.354       .  A
N1634      C1642   1.354       .  A
C1635      C1643   1.387       .  A
C1635      C1651   1.421       .  A
C1636      C1652   1.423       .  A
C1636      C1644   1.388       .  A
C1637      C1645   1.377       .  A
C1637      C1654   1.409       .  A
C1638      C1653   1.432       .  A
C1638      C1646   1.394       .  A
C1639      C1651   1.418       .  A
C1639      C1647   1.388       .  A
C1640      C1654   1.413       .  A
C1640      C1648   1.384       .  A
C1641      C1649   1.388       .  A
C1641      C1652   1.423       .  A
C1642      C1650   1.386       .  A
C1642      C1653   1.422       .  A
C1643      C1644   1.376       .  A
C1643      H1655   1.081       .  S
C1644      H1656   1.082       .  S
C1645      C1646   1.373       .  A
C1646      H2298   1.075       .  S
C1647      C1648   1.375       .  A
C1647      H1659   1.082       .  S
C1649      C1650   1.374       .  A
C1649      H1661   1.081       .  S
C1650      H2302   1.082       .  S
C1653      C2225   1.520       .  S
H1658      C2286   1.082   1_545  S
H1662      C2290   1.082   1_545  S
C1665      C1666   1.400       .  A
C1665      C1670   1.407       .  A
C1665      H1675   1.083       .  S
C1666      C1671   1.482       .  S
C1666      C1667   1.414       .  A
C1667      C1668   1.406       .  A
C1667      C1672   1.520       .  S
C1668      C1669   1.407       .  A
C1668      H1673   1.083       .  S
C1669      C1670   1.424       .  A
C1670      C1674   1.520       .  S
C1671      C1676   1.416       .  A
C1671      C1680   1.400       .  A
C1672      F1688   1.382       .  S
C1672      F1689   1.382       .  S
C1672      F1690   1.385       .  S
C1674      F1685   1.382       .  S
C1674      F1686   1.385       .  S
C1674      F1687   1.384       .  S
C1676      C1677   1.408       .  A
C1676      C1681   1.519       .  S
C1677      C1678   1.404       .  A
C1677      H1682   1.083       .  S
C1678      C1679   1.419       .  A
C1679      C1680   1.404       .  A
C1679      C1683   1.520       .  S
C1680      H1684   1.083       .  S
C1681      F1694   1.385       .  S
C1681      F1695   1.382       .  S
C1681      F1696   1.382       .  S
C1683      F1691   1.383       .  S
C1683      F1692   1.382       .  S
C1683      F1693   1.384       .  S
C1697      C1698   1.401       .  A
C1697      C1702   1.407       .  A
C1697      H1707   1.083       .  S
C1698      C1703   1.481       .  S
C1698      C1699   1.414       .  A
C1699      C1700   1.405       .  A
C1699      C1704   1.520       .  S
C1700      C1701   1.405       .  A
C1700      H1705   1.083       .  S
C1701      C1702   1.421       .  A
C1702      C1706   1.519       .  S
C1703      C1708   1.414       .  A
C1703      C1712   1.400       .  A
C1704      F1720   1.382       .  S
C1704      F1721   1.382       .  S
C1704      F1722   1.384       .  S
C1706      F1717   1.381       .  S
C1706      F1718   1.385       .  S
C1706      F1719   1.383       .  S
C1708      C1709   1.406       .  A
C1708      C1713   1.520       .  S
C1709      C1710   1.406       .  A
C1709      H1714   1.083       .  S
C1710      C1711   1.419       .  A
C1711      C1712   1.406       .  A
C1711      C1715   1.517       .  S
C1712      H1716   1.083       .  S
C1713      F1726   1.385       .  S
C1713      F1727   1.382       .  S
C1713      F1728   1.382       .  S
C1715      F1723   1.385       .  S
C1715      F1724   1.382       .  S
C1715      F1725   1.382       .  S
C1729      C1730   1.403       .  A
C1729      C1734   1.409       .  A
C1729      H1739   1.083       .  S
C1730      C1735   1.485       .  S
C1730      C1731   1.415       .  A
C1731      C1732   1.405       .  A
C1731      C1736   1.520       .  S
C1732      C1733   1.404       .  A
C1732      H1737   1.083       .  S
C1733      C1734   1.419       .  A
C1734      C1738   1.520       .  S
C1735      C1740   1.414       .  A
C1735      C1744   1.402       .  A
C1736      F1752   1.382       .  S
C1736      F1753   1.382       .  S
C1736      F1754   1.385       .  S
C1738      F1749   1.385       .  S
C1738      F1750   1.384       .  S
C1738      F1751   1.382       .  S
C1740      C1741   1.407       .  A
C1740      C1745   1.520       .  S
C1741      C1742   1.407       .  A
C1741      H1746   1.083       .  S
C1742      C1743   1.419       .  A
C1743      C1744   1.409       .  A
C1743      C1747   1.518       .  S
C1744      H1748   1.083       .  S
C1745      F1758   1.385       .  S
C1745      F1759   1.383       .  S
C1745      F1760   1.382       .  S
C1747      F1755   1.384       .  S
C1747      F1756   1.382       .  S
C1747      F1757   1.385       .  S
C1761      C1762   1.401       .  A
C1761      C1766   1.407       .  A
C1761      H1771   1.083       .  S
C1762      C1767   1.484       .  S
C1762      C1763   1.416       .  A
C1763      C1764   1.407       .  A
C1763      C1768   1.520       .  S
C1764      C1765   1.404       .  A
C1764      H1769   1.083       .  S
C1765      C1766   1.420       .  A
C1766      C1770   1.520       .  S
C1767      C1772   1.416       .  A
C1767      C1776   1.403       .  A
C1768      F1784   1.382       .  S
C1768      F1785   1.382       .  S
C1768      F1786   1.385       .  S
C1770      F1781   1.385       .  S
C1770      F1782   1.382       .  S
C1770      F1783   1.384       .  S
C1772      C1773   1.405       .  A
C1772      C1777   1.520       .  S
C1773      C1774   1.403       .  A
C1773      H1778   1.083       .  S
C1774      C1775   1.418       .  A
C1775      C1776   1.408       .  A
C1775      C1779   1.518       .  S
C1776      H1780   1.083       .  S
C1777      F1790   1.384       .  S
C1777      F1791   1.382       .  S
C1777      F1792   1.382       .  S
C1779      F1787   1.382       .  S
C1779      F1788   1.383       .  S
C1779      F1789   1.385       .  S
C1793      C1794   1.400       .  A
C1793      C1798   1.406       .  A
C1793      H1803   1.083       .  S
C1794      C1799   1.483       .  S
C1794      C1795   1.415       .  A
C1795      C1796   1.408       .  A
C1795      C1800   1.519       .  S
C1796      C1797   1.405       .  A
C1796      H1801   1.083       .  S
C1797      C1798   1.420       .  A
C1798      C1802   1.518       .  S
C1799      C1804   1.416       .  A
C1799      C1808   1.400       .  A
C1800      F1816   1.382       .  S
C1800      F1817   1.382       .  S
C1800      F1818   1.384       .  S
C1802      F1813   1.385       .  S
C1802      F1814   1.382       .  S
C1802      F1815   1.382       .  S
C1804      C1805   1.408       .  A
C1804      C1809   1.520       .  S
C1805      C1806   1.405       .  A
C1805      H1810   1.083       .  S
C1806      C1807   1.422       .  A
C1807      C1808   1.407       .  A
C1807      C1811   1.520       .  S
C1808      H1812   1.083       .  S
C1809      F1822   1.384       .  S
C1809      F1823   1.382       .  S
C1809      F1824   1.382       .  S
C1811      F1819   1.382       .  S
C1811      F1820   1.383       .  S
C1811      F1821   1.385       .  S
C1825      C1826   1.402       .  A
C1825      C1830   1.408       .  A
C1825      H1835   1.083       .  S
C1826      C1831   1.484       .  S
C1826      C1827   1.417       .  A
C1827      C1828   1.406       .  A
C1827      C1832   1.519       .  S
C1828      C1829   1.401       .  A
C1828      H1833   1.083       .  S
C1829      C1830   1.419       .  A
C1830      C1834   1.520       .  S
C1831      C1836   1.415       .  A
C1831      C1840   1.399       .  A
C1832      F1848   1.382       .  S
C1832      F1849   1.382       .  S
C1832      F1850   1.385       .  S
C1834      F1845   1.382       .  S
C1834      F1846   1.385       .  S
C1834      F1847   1.384       .  S
C1836      C1837   1.407       .  A
C1836      C1841   1.520       .  S
C1837      C1838   1.408       .  A
C1837      H1842   1.083       .  S
C1838      C1839   1.426       .  A
C1839      C1840   1.407       .  A
C1839      C1843   1.521       .  S
C1840      H1844   1.083       .  S
C1841      F1854   1.385       .  S
C1841      F1855   1.382       .  S
C1841      F1856   1.382       .  S
C1843      F1851   1.385       .  S
C1843      F1852   1.383       .  S
C1843      F1853   1.383       .  S
C1857      C1858   1.401       .  A
C1857      C1862   1.405       .  A
C1857      H1867   1.083       .  S
C1858      C1863   1.485       .  S
C1858      C1859   1.417       .  A
C1859      C1860   1.409       .  A
C1859      C1864   1.520       .  S
C1860      C1861   1.405       .  A
C1860      H1865   1.083       .  S
C1861      C1862   1.417       .  A
C1862      C1866   1.520       .  S
C1863      C1868   1.417       .  A
C1863      C1872   1.403       .  A
C1864      F1880   1.382       .  S
C1864      F1881   1.382       .  S
C1864      F1882   1.385       .  S
C1866      F1877   1.384       .  S
C1866      F1878   1.382       .  S
C1866      F1879   1.384       .  S
C1868      C1869   1.405       .  A
C1868      C1873   1.520       .  S
C1869      C1870   1.402       .  A
C1869      H1874   1.083       .  S
C1870      C1871   1.418       .  A
C1871      C1872   1.409       .  A
C1871      C1875   1.519       .  S
C1872      H1876   1.083       .  S
C1873      F1886   1.384       .  S
C1873      F1887   1.382       .  S
C1873      F1888   1.382       .  S
C1875      F1883   1.382       .  S
C1875      F1884   1.384       .  S
C1875      F1885   1.385       .  S
C1889      C1890   1.402       .  A
C1889      C1894   1.407       .  A
C1889      H1899   1.083       .  S
C1890      C1895   1.485       .  S
C1890      C1891   1.416       .  A
C1891      C1892   1.407       .  A
C1891      C1896   1.519       .  S
C1892      C1893   1.403       .  A
C1892      H1897   1.083       .  S
C1893      C1894   1.419       .  A
C1894      C1898   1.520       .  S
C1895      C1900   1.417       .  A
C1895      C1904   1.401       .  A
C1896      F1912   1.382       .  S
C1896      F1913   1.382       .  S
C1896      F1914   1.385       .  S
C1898      F1909   1.384       .  S
C1898      F1910   1.382       .  S
C1898      F1911   1.383       .  S
C1900      C1901   1.408       .  A
C1900      C1905   1.520       .  S
C1901      C1902   1.403       .  A
C1901      H1906   1.083       .  S
C1902      C1903   1.419       .  A
C1903      C1904   1.407       .  A
C1903      C1907   1.519       .  S
C1904      H1908   1.083       .  S
C1905      F1918   1.385       .  S
C1905      F1919   1.382       .  S
C1905      F1920   1.383       .  S
C1907      F1915   1.382       .  S
C1907      F1916   1.383       .  S
C1907      F1917   1.385       .  S
O1921     Ni1929   1.922       .  S
O1921      C1931   1.281       .  A
O1922     Ni1929   1.914   1_554  S
O1922      C1932   1.279       .  A
O1923     Ni1929   1.929       .  S
O1923      C1933   1.284       .  A
O1924     Ni1929   1.926       .  S
O1924      C1934   1.283       .  A
O1925     Ni1930   1.918       .  S
O1925      C1934   1.282       .  A
O1926     Ni1930   1.926       .  S
O1926      C1933   1.283       .  A
O1927     Ni1930   1.922   1_554  S
O1927      C1932   1.281       .  A
O1928     Ni1930   1.920       .  S
O1928      C1931   1.281       .  A
Ni1929    Ni1930   2.380       .  S
C1931      C2510   1.482       .  S
C1932      C2533   1.477       .  S
C1933      C2053   1.513       .  S
C1934      C2257   1.509       .  S
O1935     Ni1943   1.922       .  S
O1935      C1945   1.282       .  A
O1936     Ni1943   1.911       .  S
O1936      C1946   1.278       .  A
O1937     Ni1943   1.915       .  S
O1937      C1947   1.280       .  A
O1938     Ni1943   1.912       .  S
O1938      C1948   1.282       .  A
O1939     Ni1944   1.931       .  S
O1939      C1948   1.282       .  A
O1940     Ni1944   1.926       .  S
O1940      C1947   1.284       .  A
O1941     Ni1944   1.927       .  S
O1941      C1946   1.283       .  A
O1942     Ni1944   1.923       .  S
O1942      C1945   1.281       .  A
Ni1943    Ni1944   2.379       .  S
C1945      C2542   1.488       .  S
C1946      C2501   1.483       .  S
C1947      C2087   1.502       .  S
C1948      C2292   1.512       .  S
O1949     Ni1957   1.914       .  S
O1949      C1959   1.281       .  A
O1950     Ni1957   1.920       .  S
O1950      C1960   1.281       .  A
O1951     Ni1957   1.922       .  S
O1951      C1961   1.282       .  A
O1952     Ni1957   1.931   1_554  S
O1952      C1962   1.285       .  A
O1953     Ni1958   1.909   1_554  S
O1953      C1962   1.278       .  A
O1954     Ni1958   1.919       .  S
O1954      C1961   1.280       .  A
O1955     Ni1958   1.921       .  S
O1955      C1960   1.283       .  A
O1956     Ni1958   1.924       .  S
O1956      C1959   1.283       .  A
Ni1957    Ni1958   2.383       .  S
C1959      C2122   1.494       .  S
C1960      C2054   1.505       .  S
C1961      C2437   1.481       .  S
C1962      C2469   1.484       .  S
O1963     Ni1971   1.917       .  S
O1963      C1973   1.279       .  A
O1964     Ni1971   1.921       .  S
O1964      C1974   1.283       .  A
O1965     Ni1971   1.910       .  S
O1965      C1975   1.279       .  A
O1966     Ni1971   1.904       .  S
O1966      C1976   1.280       .  A
O1967     Ni1972   1.925       .  S
O1967      C1976   1.282       .  A
O1968     Ni1972   1.924       .  S
O1968      C1975   1.283       .  A
O1969     Ni1972   1.911       .  S
O1969      C1974   1.278       .  A
O1970     Ni1972   1.922       .  S
O1970      C1973   1.283       .  A
Ni1971    Ni1972   2.378       .  S
C1973      C2446   1.488       .  S
C1974      C2478   1.483       .  S
C1975      C2088   1.506       .  S
C1976      C2156   1.502       .  S
O1977     Ni1985   1.923       .  S
O1977      C1987   1.281       .  A
O1978     Ni1985   1.914   1_556  S
O1978      C1988   1.279       .  A
O1979     Ni1985   1.903       .  S
O1979      C1989   1.278       .  A
O1980     Ni1985   1.905       .  S
O1980      C1990   1.277       .  A
O1981     Ni1986   1.932       .  S
O1981      C1990   1.285       .  A
O1982     Ni1986   1.932       .  S
O1982      C1989   1.284       .  A
O1983     Ni1986   1.924   1_556  S
O1983      C1988   1.282       .  A
O1984     Ni1986   1.918       .  S
O1984      C1987   1.280       .  A
Ni1985    Ni1986   2.379       .  S
C1987      C2414   1.479       .  S
C1988      C2373   1.479       .  S
C1989      C2121   1.508       .  S
C1990      C2190   1.503       .  S
O1991     Ni1999   1.926       .  S
O1991      C2001   1.282       .  A
O1992     Ni1999   1.915       .  S
O1992      C2002   1.279       .  A
O1993     Ni1999   1.919       .  S
O1993      C2003   1.282       .  A
O1994     Ni1999   1.918       .  S
O1994      C2004   1.280       .  A
O1995     Ni2000   1.916       .  S
O1995      C2004   1.282       .  A
O1996     Ni2000   1.915       .  S
O1996      C2003   1.281       .  A
O1997     Ni2000   1.925       .  S
O1997      C2002   1.283       .  A
O1998     Ni2000   1.911       .  S
O1998      C2001   1.280       .  A
Ni1999    Ni2000   2.382       .  S
C2001      C2382   1.483       .  S
C2002      C2405   1.486       .  S
C2003      C2155   1.495       .  S
C2004      C2224   1.500       .  S
O2005     Ni2013   1.916       .  S
O2005      C2015   1.279       .  A
O2006     Ni2013   1.902   1_556  S
O2006      C2016   1.276       .  A
O2007     Ni2013   1.913       .  S
O2007      C2017   1.279       .  A
O2008     Ni2013   1.909       .  S
O2008      C2018   1.282       .  A
O2009     Ni2014   1.920       .  S
O2009      C2018   1.280       .  A
O2010     Ni2014   1.918       .  S
O2010      C2017   1.282       .  A
O2011     Ni2014   1.933   1_556  S
O2011      C2016   1.285       .  A
O2012     Ni2014   1.922       .  S
O2012      C2015   1.283       .  A
Ni2013    Ni2014   2.379       .  S
C2015      C2341   1.491       .  S
C2016      C2318   1.484       .  S
C2017      C2189   1.502       .  S
C2018      C2258   1.496       .  S
O2019     Ni2027   1.915       .  S
O2019      C2029   1.281       .  A
O2020     Ni2027   1.926       .  S
O2020      C2030   1.282       .  A
O2021     Ni2027   1.925       .  S
O2021      C2031   1.283       .  A
O2022     Ni2027   1.923       .  S
O2022      C2032   1.283       .  A
O2023     Ni2028   1.922       .  S
O2023      C2032   1.282       .  A
O2024     Ni2028   1.924       .  S
O2024      C2031   1.283       .  A
O2025     Ni2028   1.911       .  S
O2025      C2030   1.279       .  A
O2026     Ni2028   1.924       .  S
O2026      C2029   1.281       .  A
Ni2027    Ni2028   2.382       .  S
C2029      C2350   1.480       .  S
C2030      C2309   1.484       .  S
C2031      C2291   1.502       .  S
C2032      C2223   1.504       .  S
N2033      C2038   1.356       .  A
N2033      C2037   1.358       .  A
N2033      H2065   1.044       .  S
N2034      C2041   1.356       .  A
N2034      C2042   1.352       .  A
N2035      C2040   1.353   1_554  A
N2035      C2039   1.351   1_554  A
N2035      H2066   1.044       .  S
N2036      C2043   1.354       .  A
N2036      C2044   1.355       .  A
C2037      C2045   1.387   1_556  A
C2037      C2053   1.424       .  A
C2038      C2054   1.423       .  A
C2038      C2046   1.388   1_556  A
C2039      C2047   1.385       .  A
C2039      C2056   1.406       .  A
C2040      C2055   1.411       .  A
C2040      C2048   1.386       .  A
C2041      C2053   1.421       .  A
C2041      C2049   1.389       .  A
C2042      C2056   1.415       .  A
C2042      C2050   1.384       .  A
C2043      C2051   1.387       .  A
C2043      C2054   1.419       .  A
C2044      C2052   1.384       .  A
C2044      C2055   1.417       .  A
C2045      C2046   1.378       .  A
C2045      H2057   1.081       .  S
C2046      H2058   1.081       .  S
C2047      C2048   1.370       .  A
C2049      C2050   1.373       .  A
C2049      H2061   1.080       .  S
C2051      C2052   1.367       .  A
C2051      H2063   1.076       .  S
N2067      C2072   1.360       .  A
N2067      C2071   1.359       .  A
N2067      H2099   1.044       .  S
N2068      C2075   1.349       .  A
N2068      C2076   1.353       .  A
N2069      C2074   1.357       .  A
N2069      C2073   1.357       .  A
N2069      H2100   1.044       .  S
N2070      C2077   1.350       .  A
N2070      C2078   1.355       .  A
C2071      C2079   1.386       .  A
C2071      C2087   1.423       .  A
C2072      C2088   1.425       .  A
C2072      C2080   1.388       .  A
C2073      C2081   1.387       .  A
C2073      C2090   1.407       .  A
C2074      C2089   1.405       .  A
C2074      C2082   1.386       .  A
C2075      C2087   1.422       .  A
C2075      C2083   1.393       .  A
C2076      C2090   1.414       .  A
C2076      C2084   1.382       .  A
C2077      C2085   1.393       .  A
C2077      C2088   1.422       .  A
C2078      C2086   1.382       .  A
C2078      C2089   1.414       .  A
C2079      C2080   1.373       .  A
C2079      H2091   1.082       .  S
C2080      H2092   1.081       .  S
C2081      C2082   1.362       .  A
C2083      C2084   1.378       .  A
C2083      H2095   1.080       .  S
C2085      C2086   1.375       .  A
C2085      H2097   1.080       .  S
N2101      C2106   1.355       .  A
N2101      C2105   1.357       .  A
N2101      H2133   1.041   1_554  S
N2102      C2109   1.352       .  A
N2102      C2110   1.351       .  A
N2103      C2108   1.359   1_556  A
N2103      C2107   1.346   1_556  A
N2103      H2134   1.044       .  S
N2104      C2111   1.350       .  A
N2104      C2112   1.352       .  A
C2105      C2113   1.386       .  A
C2105      C2121   1.421       .  A
C2106      C2122   1.421   1_554  A
C2106      C2114   1.388       .  A
C2107      C2115   1.381       .  A
C2107      C2124   1.407   1_554  A
C2108      C2123   1.426       .  A
C2108      C2116   1.393       .  A
C2109      C2121   1.422       .  A
C2109      C2117   1.391       .  A
C2110      C2124   1.408   1_554  A
C2110      C2118   1.382       .  A
C2111      C2119   1.388       .  A
C2111      C2122   1.416       .  A
C2112      C2120   1.386       .  A
C2112      C2123   1.418   1_556  A
C2113      C2114   1.375       .  A
C2113      H2125   1.082       .  S
C2114      H2126   1.081       .  S
C2115      C2116   1.376       .  A
C2115      H2127   1.082       .  S
C2117      C2118   1.365       .  A
C2117      H2129   1.080       .  S
C2118      H2130   1.082       .  S
C2119      C2120   1.379       .  A
C2119      H2131   1.082       .  S
N2135      C2140   1.355       .  A
N2135      C2139   1.354       .  A
N2135      H2167   1.041       .  S
N2136      C2143   1.351       .  A
N2136      C2144   1.352       .  A
N2137      C2142   1.349       .  A
N2137      C2141   1.360       .  A
N2137      H2168   1.044       .  S
N2138      C2145   1.351       .  A
N2138      C2146   1.351       .  A
C2139      C2147   1.389       .  A
C2139      C2155   1.421       .  A
C2140      C2156   1.417       .  A
C2140      C2148   1.386       .  A
C2141      C2149   1.393       .  A
C2141      C2158   1.429       .  A
C2142      C2157   1.414       .  A
C2142      C2150   1.382       .  A
C2143      C2155   1.415       .  A
C2143      C2151   1.388       .  A
C2144      C2158   1.415       .  A
C2144      C2152   1.385       .  A
C2145      C2153   1.389       .  A
C2145      C2156   1.416       .  A
C2146      C2154   1.382       .  A
C2146      C2157   1.406       .  A
C2147      C2148   1.375       .  A
C2147      H2159   1.081       .  S
C2148      H2160   1.081       .  S
C2149      C2150   1.378       .  A
C2149      H2161   1.076       .  S
C2151      C2152   1.377       .  A
C2151      H2163   1.082       .  S
C2152      H2164   1.082       .  S
C2153      C2154   1.365       .  A
C2153      H2165   1.081       .  S
N2169      C2174   1.360       .  A
N2169      C2173   1.359       .  A
N2169      H2201   1.044       .  S
N2170      C2177   1.348       .  A
N2170      C2178   1.354       .  A
N2171      C2176   1.354       .  A
N2171      C2175   1.355       .  A
N2171      H2202   1.045   1_554  S
N2172      C2179   1.347       .  A
N2172      C2180   1.353       .  A
C2173      C2181   1.388   1_554  A
C2173      C2189   1.426       .  A
C2174      C2190   1.424       .  A
C2174      C2182   1.386   1_554  A
C2175      C2183   1.386       .  A
C2175      C2192   1.400       .  A
C2176      C2191   1.402       .  A
C2176      C2184   1.387       .  A
C2177      C2189   1.422       .  A
C2177      C2185   1.395       .  A
C2178      C2192   1.413       .  A
C2178      C2186   1.380       .  A
C2179      C2187   1.395       .  A
C2179      C2190   1.423       .  A
C2180      C2188   1.379       .  A
C2180      C2191   1.410       .  A
C2181      C2182   1.374       .  A
C2181      H2193   1.082       .  S
C2182      H2194   1.082       .  S
C2183      C2184   1.359       .  A
C2184      H2196   1.083       .  S
C2185      C2186   1.375       .  A
C2185      H2197   1.079       .  S
C2187      C2188   1.376       .  A
C2187      H2199   1.079       .  S
C2188      H2200   1.082       .  S
N2203      C2208   1.359       .  A
N2203      C2207   1.359       .  A
N2203      H2235   1.043       .  S
N2204      C2211   1.351       .  A
N2204      C2212   1.352       .  A
N2205      C2210   1.348       .  A
N2205      C2209   1.353       .  A
N2205      H2236   1.044       .  S
N2206      C2213   1.348       .  A
N2206      C2214   1.352       .  A
C2207      C2215   1.385       .  A
C2207      C2223   1.422       .  A
C2208      C2224   1.428       .  A
C2208      C2216   1.389       .  A
C2209      C2217   1.389       .  A
C2209      C2226   1.402       .  A
C2210      C2225   1.395       .  A
C2210      C2218   1.383       .  A
C2211      C2223   1.416       .  A
C2211      C2219   1.390       .  A
C2212      C2226   1.413       .  A
C2212      C2220   1.384       .  A
C2213      C2221   1.396       .  A
C2213      C2224   1.424       .  A
C2214      C2222   1.379       .  A
C2214      C2225   1.409       .  A
C2215      C2216   1.373       .  A
C2215      H2227   1.080       .  S
C2216      H2228   1.082       .  S
C2217      C2218   1.366       .  A
C2218      H2230   1.083       .  S
C2219      C2220   1.374       .  A
C2219      H2231   1.081       .  S
C2221      C2222   1.377       .  A
C2221      H2233   1.079       .  S
C2222      H2234   1.082       .  S
N2237      C2242   1.359       .  A
N2237      C2241   1.356       .  A
N2237      H2269   1.042   1_556  S
N2238      C2245   1.353       .  A
N2238      C2246   1.355       .  A
N2239      C2244   1.346   1_556  A
N2239      C2243   1.355   1_556  A
N2239      H2270   1.044       .  S
N2240      C2247   1.348       .  A
N2240      C2248   1.346       .  A
C2241      C2249   1.389       .  A
C2241      C2257   1.425       .  A
C2242      C2258   1.422   1_556  A
C2242      C2250   1.386       .  A
C2243      C2251   1.394       .  A
C2243      C2260   1.423       .  A
C2244      C2259   1.403       .  A
C2244      C2252   1.380       .  A
C2245      C2257   1.423       .  A
C2245      C2253   1.389       .  A
C2246      C2260   1.424   1_556  A
C2246      C2254   1.385       .  A
C2247      C2255   1.391       .  A
C2247      C2258   1.411       .  A
C2248      C2256   1.382       .  A
C2248      C2259   1.398       .  A
C2249      C2250   1.375       .  A
C2249      H2261   1.082       .  S
C2250      H2262   1.081       .  S
C2251      C2252   1.377       .  A
C2253      C2254   1.376       .  A
C2253      H2265   1.081       .  S
C2255      C2256   1.371       .  A
C2255      H2267   1.082       .  S
N2271      C2276   1.360       .  A
N2271      C2275   1.356       .  A
N2271      H2303   1.045       .  S
N2272      C2279   1.353       .  A
N2272      C2280   1.355       .  A
N2273      C2278   1.347       .  A
N2273      C2277   1.357       .  A
N2273      H2304   1.044       .  S
N2274      C2281   1.351       .  A
N2274      C2282   1.350       .  A
C2275      C2283   1.388       .  A
C2275      C2291   1.426       .  A
C2276      C2292   1.427       .  A
C2276      C2284   1.387       .  A
C2277      C2285   1.394       .  A
C2277      C2294   1.426       .  A
C2278      C2293   1.406       .  A
C2278      C2286   1.380       .  A
C2279      C2291   1.421       .  A
C2279      C2287   1.388       .  A
C2280      C2294   1.421       .  A
C2280      C2288   1.386       .  A
C2281      C2289   1.391       .  A
C2281      C2292   1.421       .  A
C2282      C2290   1.382       .  A
C2282      C2293   1.406       .  A
C2283      C2284   1.376       .  A
C2283      H2295   1.081       .  S
C2284      H2296   1.080       .  S
C2285      C2286   1.377       .  A
C2287      C2288   1.378       .  A
C2287      H2299   1.082       .  S
C2289      C2290   1.367       .  A
C2289      H2301   1.081       .  S
C2305      C2306   1.399       .  A
C2305      C2310   1.404       .  A
C2305      H2315   1.083       .  S
C2306      C2311   1.484       .  S
C2306      C2307   1.416       .  A
C2307      C2308   1.411       .  A
C2307      C2312   1.520       .  S
C2308      C2309   1.407       .  A
C2308      H2313   1.083       .  S
C2309      C2310   1.421       .  A
C2310      C2314   1.520       .  S
C2311      C2316   1.417       .  A
C2311      C2320   1.399       .  A
C2312      F2328   1.383       .  S
C2312      F2329   1.382       .  S
C2312      F2330   1.385       .  S
C2314      F2325   1.382       .  S
C2314      F2326   1.385       .  S
C2314      F2327   1.384       .  S
C2316      C2317   1.408       .  A
C2316      C2321   1.519       .  S
C2317      C2318   1.404       .  A
C2317      H2322   1.083       .  S
C2318      C2319   1.423       .  A
C2319      C2320   1.406       .  A
C2319      C2323   1.521       .  S
C2320      H2324   1.083       .  S
C2321      F2334   1.385       .  S
C2321      F2335   1.382       .  S
C2321      F2336   1.382       .  S
C2323      F2331   1.383       .  S
C2323      F2332   1.382       .  S
C2323      F2333   1.385       .  S
C2337      C2338   1.399       .  A
C2337      C2342   1.406       .  A
C2337      H2347   1.083       .  S
C2338      C2343   1.484       .  S
C2338      C2339   1.414       .  A
C2339      C2340   1.408       .  A
C2339      C2344   1.519       .  S
C2340      C2341   1.409       .  A
C2340      H2345   1.083       .  S
C2341      C2342   1.425       .  A
C2342      C2346   1.520       .  S
C2343      C2348   1.416       .  A
C2343      C2352   1.403       .  A
C2344      F2360   1.382       .  S
C2344      F2361   1.382       .  S
C2344      F2362   1.385       .  S
C2346      F2357   1.383       .  S
C2346      F2358   1.385       .  S
C2346      F2359   1.383       .  S
C2348      C2349   1.405       .  A
C2348      C2353   1.520       .  S
C2349      C2350   1.404       .  A
C2349      H2354   1.083       .  S
C2350      C2351   1.417       .  A
C2351      C2352   1.409       .  A
C2351      C2355   1.517       .  S
C2352      H2356   1.083       .  S
C2353      F2366   1.385       .  S
C2353      F2367   1.382       .  S
C2353      F2368   1.382       .  S
C2355      F2363   1.385       .  S
C2355      F2364   1.383       .  S
C2355      F2365   1.382       .  S
C2369      C2370   1.402       .  A
C2369      C2374   1.407       .  A
C2369      H2379   1.083       .  S
C2370      C2375   1.487       .  S
C2370      C2371   1.418       .  A
C2371      C2372   1.408       .  A
C2371      C2376   1.520       .  S
C2372      C2373   1.403       .  A
C2372      H2377   1.083       .  S
C2373      C2374   1.419       .  A
C2374      C2378   1.520       .  S
C2375      C2380   1.416       .  A
C2375      C2384   1.403       .  A
C2376      F2392   1.382       .  S
C2376      F2393   1.383       .  S
C2376      F2394   1.385       .  S
C2378      F2389   1.385       .  S
C2378      F2390   1.382       .  S
C2378      F2391   1.383       .  S
C2380      C2381   1.406       .  A
C2380      C2385   1.520       .  S
C2381      C2382   1.404       .  A
C2381      H2386   1.083       .  S
C2382      C2383   1.419       .  A
C2383      C2384   1.409       .  A
C2383      C2387   1.518       .  S
C2384      H2388   1.083       .  S
C2385      F2398   1.385       .  S
C2385      F2399   1.382       .  S
C2385      F2400   1.383       .  S
C2387      F2395   1.382       .  S
C2387      F2396   1.383       .  S
C2387      F2397   1.385       .  S
C2401      C2402   1.401       .  A
C2401      C2406   1.407       .  A
C2401      H2411   1.083       .  S
C2402      C2407   1.488       .  S
C2402      C2403   1.417       .  A
C2403      C2404   1.409       .  A
C2403      C2408   1.519       .  S
C2404      C2405   1.406       .  A
C2404      H2409   1.083       .  S
C2405      C2406   1.422       .  A
C2406      C2410   1.521       .  S
C2407      C2412   1.418       .  A
C2407      C2416   1.403       .  A
C2408      F2424   1.382       .  S
C2408      F2425   1.382       .  S
C2408      F2426   1.385       .  S
C2410      F2421   1.385       .  S
C2410      F2422   1.382       .  S
C2410      F2423   1.384       .  S
C2412      C2413   1.409       .  A
C2412      C2417   1.520       .  S
C2413      C2414   1.403       .  A
C2413      H2418   1.083       .  S
C2414      C2415   1.416       .  A
C2415      C2416   1.407       .  A
C2415      C2419   1.518       .  S
C2416      H2420   1.083       .  S
C2417      F2430   1.385       .  S
C2417      F2431   1.382       .  S
C2417      F2432   1.382       .  S
C2419      F2427   1.382       .  S
C2419      F2428   1.384       .  S
C2419      F2429   1.385       .  S
C2433      C2434   1.400       .  A
C2433      C2438   1.405       .  A
C2433      H2443   1.083       .  S
C2434      C2439   1.486       .  S
C2434      C2435   1.417       .  A
C2435      C2436   1.410       .  A
C2435      C2440   1.518       .  S
C2436      C2437   1.404       .  A
C2436      H2441   1.083       .  S
C2437      C2438   1.417       .  A
C2438      C2442   1.514       .  S
C2439      C2444   1.416       .  A
C2439      C2448   1.402       .  A
C2440      F2456   1.382       .  S
C2440      F2457   1.382       .  S
C2440      F2458   1.385       .  S
C2442      F2453   1.384       .  S
C2442      F2454   1.381       .  S
C2442      F2455   1.383       .  S
C2444      C2445   1.406       .  A
C2444      C2449   1.521       .  S
C2445      C2446   1.405       .  A
C2445      H2450   1.083       .  S
C2446      C2447   1.424       .  A
C2447      C2448   1.410       .  A
C2447      C2451   1.520       .  S
C2448      H2452   1.083       .  S
C2449      F2462   1.384       .  S
C2449      F2463   1.382       .  S
C2449      F2464   1.382       .  S
C2451      F2459   1.383       .  S
C2451      F2460   1.383       .  S
C2451      F2461   1.384       .  S
C2465      C2466   1.400       .  A
C2465      C2470   1.407       .  A
C2465      H2475   1.083       .  S
C2466      C2471   1.485       .  S
C2466      C2467   1.415       .  A
C2467      C2468   1.408       .  A
C2467      C2472   1.519       .  S
C2468      C2469   1.405       .  A
C2468      H2473   1.083       .  S
C2469      C2470   1.422       .  A
C2470      C2474   1.521       .  S
C2471      C2476   1.416       .  A
C2471      C2480   1.401       .  A
C2472      F2488   1.382       .  S
C2472      F2489   1.382       .  S
C2472      F2490   1.384       .  S
C2474      F2485   1.382       .  S
C2474      F2486   1.385       .  S
C2474      F2487   1.383       .  S
C2476      C2477   1.406       .  A
C2476      C2481   1.520       .  S
C2477      C2478   1.404       .  A
C2477      H2482   1.083       .  S
C2478      C2479   1.422       .  A
C2479      C2480   1.409       .  A
C2479      C2483   1.521       .  S
C2480      H2484   1.083       .  S
C2481      F2494   1.385       .  S
C2481      F2495   1.382       .  S
C2481      F2496   1.382       .  S
C2483      F2491   1.385       .  S
C2483      F2492   1.384       .  S
C2483      F2493   1.383       .  S
C2497      C2498   1.401       .  A
C2497      C2502   1.407       .  A
C2497      H2507   1.083       .  S
C2498      C2503   1.487       .  S
C2498      C2499   1.417       .  A
C2499      C2500   1.410       .  A
C2499      C2504   1.519       .  S
C2500      C2501   1.405       .  A
C2500      H2505   1.083       .  S
C2501      C2502   1.420       .  A
C2502      C2506   1.521       .  S
C2503      C2508   1.417       .  A
C2503      C2512   1.402       .  A
C2504      F2520   1.382       .  S
C2504      F2521   1.382       .  S
C2504      F2522   1.385       .  S
C2506      F2517   1.384       .  S
C2506      F2518   1.382       .  S
C2506      F2519   1.384       .  S
C2508      C2509   1.408       .  A
C2508      C2513   1.519       .  S
C2509      C2510   1.403       .  A
C2509      H2514   1.083       .  S
C2510      C2511   1.419       .  A
C2511      C2512   1.408       .  A
C2511      C2515   1.520       .  S
C2512      H2516   1.083       .  S
C2513      F2526   1.385       .  S
C2513      F2527   1.382       .  S
C2513      F2528   1.382       .  S
C2515      F2523   1.382       .  S
C2515      F2524   1.383       .  S
C2515      F2525   1.385       .  S
C2529      C2530   1.404       .  A
C2529      C2534   1.408       .  A
C2529      H2539   1.083       .  S
C2530      C2535   1.487       .  S
C2530      C2531   1.417       .  A
C2531      C2532   1.407       .  A
C2531      C2536   1.520       .  S
C2532      C2533   1.402       .  A
C2532      H2537   1.083       .  S
C2533      C2534   1.416       .  A
C2534      C2538   1.519       .  S
C2535      C2540   1.415       .  A
C2535      C2544   1.402       .  A
C2536      F2552   1.382       .  S
C2536      F2553   1.382       .  S
C2536      F2554   1.385       .  S
C2538      F2549   1.384       .  S
C2538      F2550   1.382       .  S
C2538      F2551   1.384       .  S
C2540      C2541   1.409       .  A
C2540      C2545   1.520       .  S
C2541      C2542   1.407       .  A
C2541      H2546   1.083       .  S
C2542      C2543   1.421       .  A
C2543      C2544   1.408       .  A
C2543      C2547   1.520       .  S
C2544      H2548   1.083       .  S
C2545      F2558   1.385       .  S
C2545      F2559   1.382       .  S
C2545      F2560   1.382       .  S
C2547      F2555   1.382       .  S
C2547      F2556   1.384       .  S
C2547      F2557   1.385       .  S
