geometry optimzed in LAMMPS
_audit_creation_date              2020-12-01 
_audit_creation_method            'lammps2cif' 
_symmetry_space_group_name_H-M    'P1' 
_symmetry_Int_Tables_number       1 
_symmetry_cell_setting            triclinic 
loop_ 
_symmetry_equiv_pos_as_xyz 
  x,y,z 
_cell_length_a                    37.98681082 
_cell_length_b                    37.99463518670589 
_cell_length_c                    139.45168677436124 
_cell_angle_alpha                 90.14425357326918 
_cell_angle_beta                  90.3299980868546 
_cell_angle_gamma                 90.15265565351737 
loop_ 
_atom_site_label 
_atom_site_type_symbol 
_atom_site_fract_x 
_atom_site_fract_y 
_atom_site_fract_z 
_atom_site_charge 
N1          N  0.83175584  0.83572247  0.30142484    -0.25700
N2          N  0.83963896  0.82985784  0.29234584    -0.33600
C3          C  0.83892007  0.79519636  0.29060680     0.02600
C4          C  0.83016529  0.77777552  0.29892229     0.08700
C5          C  0.82590760  0.80429950  0.30573694    -0.04400
H6          H  0.84141335  0.78364149  0.28354196     0.09300
H7          H  0.81629581  0.80122066  0.31297590     0.10500
Cu8        Cu  0.84123344  0.86802745  0.28183946     0.44200
Cu9        Cu  0.82423051  0.88756956  0.30625188     0.42000
Cu10       Cu  0.80676301  0.95224175  0.28623705     0.43900
N11         N  0.82551592  0.90105008  0.27088657    -0.33100
N12         N  0.81058298  0.93194265  0.27232104    -0.27300
C13         C  0.79902599  0.94446401  0.26379069    -0.03400
C14         C  0.80728380  0.91995092  0.25671862     0.08800
C15         C  0.82408190  0.89302995  0.26152431     0.02600
H16         H  0.78487963  0.96889604  0.26286670     0.10200
H17         H  0.83307416  0.86842383  0.25848365     0.09300
N18         N  0.81281869  0.96500004  0.30078420    -0.34500
N19         N  0.81924311  0.94242302  0.30783233    -0.26700
C20         C  0.82471319  0.96074446  0.31601065    -0.02000
C21         C  0.82151117  0.99625229  0.31403369     0.06700
C22         C  0.81408868  0.99800461  0.30434337     0.04800
H23         H  0.83204721  0.94911586  0.32280646     0.09900
H24         H  0.81145470  0.02161790  0.30008022     0.08700
N25         N  0.80097290  0.62334407  0.30625585    -0.25700
N26         N  0.78375414  0.63376332  0.29852747    -0.33600
C27         C  0.78549876  0.66886155  0.29780083     0.02600
C28         C  0.80503088  0.68192677  0.30542550     0.08700
C29         C  0.81410911  0.65224523  0.31075117    -0.04400
H30         H  0.77447054  0.68356093  0.29187541     0.09300
H31         H  0.83074541  0.65159904  0.31706938     0.10500
Cu32       Cu  0.76373115  0.60035801  0.28826825     0.44200
Cu33       Cu  0.80765315  0.56907748  0.30886030     0.42000
Cu34       Cu  0.78259978  0.50897652  0.28816974     0.43900
N35         N  0.75364663  0.56881369  0.27660406    -0.33100
N36         N  0.76103106  0.53490839  0.27614117    -0.27300
C37         C  0.75336727  0.52340916  0.26715664    -0.03400
C38         C  0.74070484  0.55180405  0.26185311     0.08800
C39         C  0.74137543  0.57987717  0.26811220     0.02600
H40         H  0.75744725  0.49680113  0.26463591     0.10200
H41         H  0.73436441  0.60683338  0.26652806     0.09300
N42         N  0.80335488  0.49248073  0.30151492    -0.34500
N43         N  0.81186434  0.51362853  0.30877831    -0.26700
C44         C  0.82433016  0.49387417  0.31607704    -0.02000
C45         C  0.82372723  0.45883250  0.31334921     0.06700
C46         C  0.81032668  0.45890829  0.30408749     0.04800
H47         H  0.83348355  0.50434525  0.32287197     0.09900
H48         H  0.80612567  0.43621001  0.29951587     0.08700
N49         N  0.40056843  0.39083805  0.44494900    -0.25700
N50         N  0.40749818  0.38455348  0.45408352    -0.33600
C51         C  0.44240680  0.38516830  0.45551360     0.02600
C52         C  0.45879492  0.39211634  0.44691795     0.08700
C53         C  0.43144705  0.39550092  0.44029634    -0.04400
H54         H  0.45490311  0.38351478  0.46249290     0.09300
H55         H  0.43367477  0.40346798  0.43288191     0.10500
Cu56       Cu  0.37028029  0.38386255  0.46482587     0.44200
Cu57       Cu  0.34841685  0.39749672  0.44019499     0.42000
Cu58       Cu  0.28398925  0.41485488  0.45972041     0.43900
N59         N  0.33569852  0.39931968  0.47539666    -0.33100
N60         N  0.30416739  0.41248149  0.47364689    -0.27300
C61         C  0.29052647  0.42447853  0.48195735    -0.03400
C62         C  0.31493579  0.41847362  0.48922681     0.08800
C63         C  0.34304870  0.40247521  0.48477877     0.02600
H64         H  0.26554897  0.43786346  0.48256312     0.10200
H65         H  0.36795748  0.39543052  0.48804353     0.09300
N66         N  0.27099399  0.40936626  0.44521941    -0.34500
N67         N  0.29373023  0.40286314  0.43825389    -0.26700
C68         C  0.27561848  0.39765849  0.43001641    -0.02000
C69         C  0.24004886  0.40111927  0.43188442     0.06700
C70         C  0.23806946  0.40844683  0.44156954     0.04800
H71         H  0.28739096  0.39022347  0.42326524     0.09900
H72         H  0.21435943  0.41111904  0.44576969     0.08700
N73         N  0.61053385  0.42469315  0.43701516    -0.25700
N74         N  0.60073263  0.44282809  0.44464312    -0.33600
C75         C  0.56596507  0.43946196  0.44587986     0.02600
C76         C  0.55248931  0.41788944  0.43875706     0.08700
C77         C  0.58148939  0.40928844  0.43313913    -0.04400
H78         H  0.55178373  0.45095698  0.45181224     0.09300
H79         H  0.58171149  0.39167460  0.42703301     0.10500
Cu80       Cu  0.63415778  0.46692914  0.45431911     0.44200
Cu81       Cu  0.66434653  0.42029890  0.43344007     0.42000
Cu82       Cu  0.72554186  0.45354065  0.45263222     0.43900
N83         N  0.66821209  0.48047970  0.46528516    -0.33100
N84         N  0.70243887  0.47488833  0.46489297    -0.27300
C85         C  0.71698854  0.48424257  0.47337898    -0.03400
C86         C  0.69053493  0.49636146  0.47936395     0.08800
C87         C  0.65991968  0.49345637  0.47394660     0.02600
H88         H  0.74470450  0.48212034  0.47510378     0.10200
H89         H  0.63334699  0.49941980  0.47614710     0.09300
N90         N  0.74137858  0.43170190  0.43957237    -0.34500
N91         N  0.71996581  0.41999076  0.43270818    -0.26700
C92         C  0.73975627  0.40748743  0.42544214    -0.02000
C93         C  0.77498993  0.41154391  0.42784624     0.06700
C94         C  0.77501712  0.42688148  0.43683188     0.04800
H95         H  0.72925736  0.39590888  0.41892819     0.09900
H96         H  0.79783693  0.43375767  0.44113075     0.08700
N97         N  0.60648347  0.07646054  0.44314067    -0.25700
N98         N  0.60086130  0.08410126  0.45224626    -0.33600
C99         C  0.56642086  0.08166890  0.45411153     0.02600
C100        C  0.54891167  0.07197894  0.44583916     0.08700
C101        C  0.57508869  0.06903567  0.43892470    -0.04400
H102        H  0.55531821  0.08337083  0.46122903     0.09300
H103        H  0.57197348  0.05904420  0.43169691     0.10500
Cu104      Cu  0.63961152  0.08646072  0.46257226     0.44200
Cu105      Cu  0.65834252  0.07062242  0.43822538     0.42000
Cu106      Cu  0.72282856  0.04985956  0.45814582     0.43900
N107        N  0.67219285  0.06966445  0.47344268    -0.33100
N108        N  0.70258147  0.05373916  0.47205211    -0.27300
C109        C  0.71442532  0.04149048  0.48058875    -0.03400
C110        C  0.68993328  0.05040370  0.48757995     0.08800
C111        C  0.66378602  0.06820666  0.48274359     0.02600
H112        H  0.73823471  0.02632887  0.48155833     0.10200
H113        H  0.63929611  0.07770731  0.48569286     0.09300
N114        N  0.73557872  0.05703146  0.44365695    -0.34500
N115        N  0.71315798  0.06506083  0.43665726    -0.26700
C116        C  0.73153559  0.07024118  0.42851973    -0.02000
C117        C  0.76690478  0.06502734  0.43046978     0.06700
C118        C  0.76850778  0.05683657  0.44010200     0.04800
H119        H  0.72004965  0.07809898  0.42173981     0.09900
H120        H  0.79204093  0.05219521  0.44431518     0.08700
N121        N  0.39697683  0.03357334  0.43840433    -0.25700
N122        N  0.40851048  0.01534460  0.44583225    -0.33600
C123        C  0.44354986  0.01895518  0.44657479     0.02600
C124        C  0.45508693  0.04067655  0.43927437     0.08700
C125        C  0.42482535  0.04918941  0.43414250    -0.04400
H126        H  0.45927130  0.00755980  0.45225884     0.09300
H127        H  0.42297608  0.06693794  0.42810786     0.10500
Cu128      Cu  0.37619623  0.99021478  0.45552789     0.44200
Cu129      Cu  0.34295545  0.03780080  0.43550274     0.42000
Cu130      Cu  0.28300673  0.00119920  0.45421811     0.43900
N131        N  0.34246536  0.97385750  0.46620126    -0.33100
N132        N  0.30804303  0.97868075  0.46603611    -0.27300
C133        C  0.29464805  0.96849928  0.47454796    -0.03400
C134        C  0.32225042  0.95673717  0.48026640     0.08800
C135        C  0.35195140  0.96041314  0.47470893     0.02600
H136        H  0.26722264  0.97057909  0.47650031     0.10200
H137        H  0.37884907  0.95531510  0.47687252     0.09300
N138        N  0.26658284  0.02382619  0.44132967    -0.34500
N139        N  0.28779006  0.03681128  0.43468157    -0.26700
C140        C  0.26801824  0.04898618  0.42735624    -0.02000
C141        C  0.23297407  0.04330275  0.42947990     0.06700
C142        C  0.23294344  0.02745520  0.43837457     0.04800
H143        H  0.27842994  0.06119516  0.42096721     0.09900
H144        H  0.21017134  0.01924357  0.44243243     0.08700
C145        C  0.15959308  0.36739195  0.41407663     0.88100
C146        C  0.16502895  0.37433797  0.40331716    -0.52200
C147        C  0.14018179  0.35863999  0.39760138     0.11000
C148        C  0.11227063  0.33769355  0.40312199     0.22000
C149        C  0.12171394  0.37961886  0.41616780    -0.52900
C150        C  0.09695302  0.36388851  0.41039234     0.11100
C151        C  0.15834246  0.32715212  0.41496621    -0.52400
C152        C  0.13356332  0.31177042  0.40922127     0.11700
H153        H  0.18686194  0.38954527  0.40048412     0.16200
H154        H  0.09218739  0.32483667  0.39844691     0.01900
H155        H  0.11512344  0.39851204  0.42172764     0.16500
H156        H  0.17567602  0.31217284  0.41964044     0.16300
C157        C  0.14971047  0.37430260  0.33304482     0.88100
C158        C  0.15625345  0.37912548  0.34384797    -0.52200
C159        C  0.13975719  0.35451814  0.34935769     0.11000
C160        C  0.11834321  0.32722416  0.34357657     0.22000
C161        C  0.16117304  0.33625464  0.33082364    -0.52900
C162        C  0.14456472  0.31158045  0.33635133     0.11100
C163        C  0.10947419  0.37397861  0.33190479    -0.52400
C164        C  0.09311014  0.34931551  0.33741024     0.11700
H165        H  0.17191179  0.40044974  0.34687044     0.16200
H166        H  0.10483812  0.30725513  0.34807159     0.01900
H167        H  0.18002129  0.32947438  0.32529535     0.16500
H168        H  0.09520761  0.39171237  0.32718578     0.16300
C169        C  0.15121972  0.07987995  0.41277816     0.88100
C170        C  0.15129908  0.12003412  0.41383959    -0.52200
C171        C  0.12690612  0.13632800  0.40822541     0.11000
C172        C  0.10453362  0.11122138  0.40206456     0.22000
C173        C  0.11311086  0.06856025  0.41492595    -0.52900
C174        C  0.08865014  0.08514989  0.40929390     0.11100
C175        C  0.15612196  0.07318407  0.40199180    -0.52400
C176        C  0.13166680  0.08973775  0.39639244     0.11700
H177        H  0.16931351  0.13434490  0.41852274     0.16200
H178        H  0.08473168  0.12480130  0.39749667     0.01900
H179        H  0.10613359  0.04983619  0.42047647     0.16500
H180        H  0.17744859  0.05759324  0.39905253     0.16300
C181        C  0.14075065  0.07255593  0.33175851     0.88100
C182        C  0.10059208  0.07513829  0.33078650    -0.52200
C183        C  0.08611755  0.10049023  0.33643658     0.11000
C184        C  0.11288994  0.12102562  0.34255679     0.22000
C185        C  0.15440693  0.11000650  0.32960522    -0.52900
C186        C  0.13961285  0.13539427  0.33529601     0.11100
C187        C  0.14756631  0.06712092  0.34252879    -0.52400
C188        C  0.13290545  0.09254044  0.34816671     0.11700
H189        H  0.08496670  0.05823140  0.32611213     0.16200
H190        H  0.10081489  0.14156668  0.34717003     0.01900
H191        H  0.17341548  0.11588542  0.32404302     0.16500
H192        H  0.16203237  0.04489822  0.34543146     0.16300
C193        C  0.86201734  0.37760846  0.33033491     0.88100
C194        C  0.90217095  0.37451241  0.32931367    -0.52200
C195        C  0.91695363  0.35012593  0.33526310     0.11000
C196        C  0.89038634  0.33086173  0.34165454     0.22000
C197        C  0.84792310  0.33995964  0.32869293    -0.52900
C198        C  0.86288192  0.31549181  0.33464315     0.11100
C199        C  0.85617266  0.38499485  0.34107302    -0.52400
C200        C  0.87114831  0.36051526  0.34698191     0.11700
H201        H  0.91760253  0.39073379  0.32449096     0.16200
H202        H  0.90261024  0.31104985  0.34648204     0.01900
H203        H  0.82835450  0.33326309  0.32327569     0.16500
H204        H  0.84222261  0.40789143  0.34375011     0.16300
C205        C  0.85795669  0.37434461  0.41161943     0.88100
C206        C  0.85843470  0.33405597  0.41235669    -0.52200
C207        C  0.88322914  0.31859409  0.40673101     0.11000
C208        C  0.90526729  0.34452335  0.40085428     0.22000
C209        C  0.89598535  0.38583930  0.41403188    -0.52900
C210        C  0.92075894  0.36997195  0.40837860     0.11100
C211        C  0.85324201  0.38192895  0.40086391    -0.52400
C212        C  0.87795898  0.36619470  0.39523115     0.11700
H213        H  0.84073775  0.31910142  0.41690122     0.16200
H214        H  0.92531108  0.33158023  0.39627037     0.01900
H215        H  0.90269597  0.40389068  0.41981377     0.16500
H216        H  0.83171986  0.39743802  0.39795272     0.16300
C217        C  0.84988509  0.09031781  0.41274753     0.88100
C218        C  0.84478409  0.08163486  0.40204902    -0.52200
C219        C  0.87072963  0.09497402  0.39635318     0.11000
C220        C  0.89935801  0.11553759  0.40184215     0.22000
C221        C  0.88694992  0.07660118  0.41531163    -0.52900
C222        C  0.91284025  0.08999699  0.40955757     0.11100
C223        C  0.85319265  0.13052590  0.41315144    -0.52400
C224        C  0.87908782  0.14359744  0.40745917     0.11700
H225        H  0.82229096  0.06717157  0.39921995     0.16200
H226        H  0.92034909  0.12651885  0.39719011     0.01900
H227        H  0.89223337  0.05862997  0.42118691     0.16500
H228        H  0.83641223  0.14720436  0.41750671     0.16300
C229        C  0.85494191  0.07704601  0.33170399     0.88100
C230        C  0.84914993  0.07108564  0.34248556    -0.52200
C231        C  0.86498843  0.09594857  0.34815318     0.11000
C232        C  0.88490052  0.12447696  0.34255868     0.22000
C233        C  0.84184596  0.11474485  0.32975682    -0.52900
C234        C  0.85770208  0.13959098  0.33547137     0.11100
C235        C  0.89504850  0.07903519  0.33056789    -0.52400
C236        C  0.91062407  0.10382605  0.33625768     0.11700
H237        H  0.83469882  0.04882029  0.34536781     0.16200
H238        H  0.89787739  0.14459214  0.34719015     0.01900
H239        H  0.82250773  0.12120016  0.32427503     0.16500
H240        H  0.90986632  0.06197894  0.32580879     0.16300
N241        N  0.19265527  0.83190053  0.30015931    -0.25700
N242        N  0.19931712  0.82759760  0.29094352    -0.33600
C243        C  0.20248245  0.79340883  0.28892186     0.02600
C244        C  0.19779047  0.77430233  0.29717111     0.08700
C245        C  0.19158196  0.79949693  0.30428618    -0.04400
H246        H  0.20795934  0.78310088  0.28184446     0.09300
H247        H  0.18660614  0.79466615  0.31179942     0.10500
Cu248      Cu  0.20390170  0.86654045  0.28089456     0.44200
Cu249      Cu  0.18570660  0.88361438  0.30554192     0.42000
Cu250      Cu  0.19221329  0.95400223  0.28589019     0.43900
N251        N  0.20676119  0.90351208  0.27025090    -0.33100
N252        N  0.20254900  0.93736481  0.27192331    -0.27300
C253        C  0.20590457  0.95491538  0.26356298    -0.03400
C254        C  0.21218278  0.93056207  0.25631313     0.08800
C255        C  0.21266609  0.89824443  0.26089535     0.02600
H256        H  0.20367474  0.98315921  0.26279262     0.10200
H257        H  0.21732664  0.87264930  0.25774785     0.09300
N258        N  0.18285349  0.96275930  0.30045439    -0.34500
N259        N  0.18065907  0.93887564  0.30738197    -0.26700
C260        C  0.17416840  0.95585321  0.31572241    -0.02000
C261        C  0.17232443  0.99168643  0.31392588     0.06700
C262        C  0.17780491  0.99499928  0.30421901     0.04800
H263        H  0.17060488  0.94301237  0.32256558     0.09900
H264        H  0.17774646  0.01915329  0.30012442     0.08700
N265        N  0.20677913  0.61628647  0.30487691    -0.25700
N266        N  0.21898910  0.62407932  0.29629507    -0.33600
C267        C  0.21834195  0.65897553  0.29502152     0.02600
C268        C  0.20482432  0.67476956  0.30317906     0.08700
C269        C  0.19802219  0.64674361  0.30934751    -0.04400
H270        H  0.22744109  0.67163649  0.28855747     0.09300
H271        H  0.18703706  0.64839704  0.31647234     0.10500
Cu272      Cu  0.23590462  0.58787350  0.28633193     0.44200
Cu273      Cu  0.20283371  0.56325700  0.30918182     0.42000
Cu274      Cu  0.23077757  0.49664348  0.29046455     0.43900
N275        N  0.25227598  0.55145049  0.27636297    -0.33100
N276        N  0.25018937  0.51711455  0.27763729    -0.27300
C277        C  0.26208238  0.50088465  0.26965925    -0.03400
C278        C  0.27241137  0.52646578  0.26313985     0.08800
C279        C  0.26560732  0.55817817  0.26767634     0.02600
H280        H  0.26305295  0.47266153  0.26865822     0.10200
H281        H  0.26916702  0.58439907  0.26483999     0.09300
N282        N  0.21075483  0.48481472  0.30403612    -0.34500
N283        N  0.20097078  0.50796325  0.31065310    -0.26700
C284        C  0.18859148  0.49015953  0.31830269    -0.02000
C285        C  0.19075293  0.45443307  0.31641490     0.06700
C286        C  0.20482785  0.45202600  0.30733775     0.04800
H287        H  0.17811103  0.50236855  0.32469152     0.09900
H288        H  0.20978327  0.42816054  0.30332207     0.08700
N289        N  0.70909427  0.83925093  0.19086393    -0.25700
N290        N  0.73280295  0.83626880  0.19779002    -0.33600
C291        C  0.73967636  0.80224136  0.19934229     0.02600
C292        C  0.71940754  0.78212149  0.19320818     0.08700
C293        C  0.70014493  0.80640761  0.18784575    -0.04400
H294        H  0.75683841  0.79269609  0.20497926     0.09300
H295        H  0.68024721  0.80065830  0.18248163     0.10500
Cu296      Cu  0.75102595  0.87657514  0.20642437     0.44200
Cu297      Cu  0.69046275  0.88937642  0.18687261     0.42000
Cu298      Cu  0.71398916  0.95956858  0.20515013     0.43900
N299        N  0.75817474  0.91296743  0.21726183    -0.33100
N300        N  0.74310868  0.94417411  0.21714032    -0.27300
C301        C  0.74918027  0.96020804  0.22564824    -0.03400
C302        C  0.76901944  0.93777960  0.23138482     0.08800
C303        C  0.77418089  0.90807786  0.22575404     0.02600
H304        H  0.73900298  0.98577248  0.22763362     0.10200
H305        H  0.78706513  0.88384655  0.22776741     0.09300
N306        N  0.69104582  0.96827867  0.19172843    -0.34500
N307        N  0.68262114  0.94403622  0.18522381    -0.26700
C308        C  0.67022307  0.96053096  0.17732598    -0.02000
C309        C  0.67111710  0.99650445  0.17896417     0.06700
C310        C  0.68429354  0.00040650  0.18812669     0.04800
H311        H  0.66180313  0.94733775  0.17081806     0.09900
H312        H  0.68926214  0.02490640  0.19187438     0.08700
N313        N  0.68949368  0.62478534  0.19032822    -0.25700
N314        N  0.69929542  0.63327399  0.19915049    -0.33600
C315        C  0.70361316  0.66823528  0.19979916     0.02600
C316        C  0.69614657  0.68315084  0.19097249     0.08700
C317        C  0.68693502  0.65476663  0.18513365    -0.04400
H318        H  0.71108352  0.68176530  0.20633777     0.09300
H319        H  0.67947423  0.65582563  0.17764370     0.10500
Cu320      Cu  0.70566800  0.59819866  0.21031872     0.44200
Cu321      Cu  0.68166524  0.57182053  0.18620244     0.42000
Cu322      Cu  0.69383595  0.50730665  0.20608709     0.43900
N323        N  0.71011100  0.56126477  0.22110368    -0.33100
N324        N  0.70600760  0.52716136  0.21966417    -0.27300
C325        C  0.71176449  0.51018658  0.22802023    -0.03400
C326        C  0.71966062  0.53496376  0.23505034     0.08800
C327        C  0.71835462  0.56708473  0.23034732     0.02600
H328        H  0.71056769  0.48193289  0.22890367     0.10200
H329        H  0.72378566  0.59286418  0.23330602     0.09300
N330        N  0.68302648  0.49401550  0.19184487    -0.34500
N331        N  0.67844601  0.51653390  0.18469034    -0.26700
C332        C  0.67117170  0.49799018  0.17662508    -0.02000
C333        C  0.67138177  0.46241600  0.17884682     0.06700
C334        C  0.67885937  0.46095654  0.18852046     0.04800
H335        H  0.66550600  0.50956355  0.16970705     0.09900
H336        H  0.68043887  0.43754114  0.19290040     0.08700
N337        N  0.28429657  0.84046324  0.18577048    -0.25700
N338        N  0.26352189  0.83075749  0.19285125    -0.33600
C339        C  0.26390047  0.79562922  0.19367296     0.02600
C340        C  0.28625676  0.78196251  0.18681830     0.08700
C341        C  0.29845625  0.81119268  0.18182221    -0.04400
H342        H  0.25048122  0.78132287  0.19927397     0.09300
H343        H  0.31806644  0.81130284  0.17622750     0.10500
Cu344      Cu  0.24187258  0.86510985  0.20258112     0.44200
Cu345      Cu  0.29427398  0.89412691  0.18329302     0.42000
Cu346      Cu  0.26540868  0.95546939  0.20303394     0.43900
N347        N  0.23312664  0.89696614  0.21427674    -0.33100
N348        N  0.24245875  0.93042403  0.21480954    -0.27300
C349        C  0.23675192  0.94196497  0.22385399    -0.03400
C350        C  0.22334947  0.91406655  0.22916684     0.08800
C351        C  0.22147284  0.88621897  0.22283329     0.02600
H352        H  0.24328797  0.96803697  0.22644289     0.10200
H353        H  0.21381679  0.85943139  0.22445533     0.09300
N354        N  0.28803402  0.97093986  0.19002635    -0.34500
N355        N  0.29829009  0.94940652  0.18307134    -0.26700
C356        C  0.31162772  0.96885589  0.17586199    -0.02000
C357        C  0.30961189  0.00403139  0.17837425     0.06700
C358        C  0.29462952  0.00441687  0.18737323     0.04800
H359        H  0.32219994  0.95812001  0.16929093     0.09900
H360        H  0.28909647  0.02735157  0.19172067     0.08700
N361        N  0.31851092  0.63051670  0.19288851    -0.25700
N362        N  0.32582983  0.63818440  0.20193036    -0.33600
C363        C  0.32226132  0.67285118  0.20335805     0.02600
C364        C  0.31242331  0.68837217  0.19484130     0.08700
C365        C  0.31032247  0.66077703  0.18826647    -0.04400
H366        H  0.32424187  0.68555225  0.21029628     0.09300
H367        H  0.30092934  0.66220923  0.18093873     0.10500
Cu368      Cu  0.33262725  0.60160598  0.21265613     0.44200
Cu369      Cu  0.31559728  0.57768783  0.18842593     0.42000
Cu370      Cu  0.30853138  0.51326870  0.20887467     0.43900
N371        N  0.32402531  0.56733054  0.22382856    -0.33100
N372        N  0.31338772  0.53451570  0.22262759    -0.27300
C373        C  0.30480981  0.52104680  0.23126851    -0.03400
C374        C  0.31030803  0.54702052  0.23816387     0.08800
C375        C  0.32258886  0.57577869  0.23315769     0.02600
H376        H  0.29363473  0.49516544  0.23235180     0.10200
H377        H  0.32774454  0.60180550  0.23600522     0.09300
N378        N  0.31092143  0.50003434  0.19434508    -0.34500
N379        N  0.31408500  0.52247095  0.18711429    -0.26700
C380        C  0.31815106  0.50389723  0.17893398    -0.02000
C381        C  0.31729785  0.46839512  0.18111934     0.06700
C382        C  0.31277068  0.46691581  0.19091709     0.04800
H383        H  0.32277165  0.51542340  0.17196584     0.09900
H384        H  0.31248243  0.44349741  0.19531652     0.08700
N385        N  0.88766371  0.45821563  0.05971619    -0.25700
N386        N  0.89373782  0.48193293  0.05301546    -0.33600
C387        C  0.92843313  0.48731764  0.05218554     0.02600
C388        C  0.94601778  0.46577076  0.05861887     0.08700
C389        C  0.91914441  0.44774517  0.06333896    -0.04400
H390        H  0.93965982  0.50437193  0.04681813     0.09300
H391        H  0.92238975  0.42747840  0.06870263     0.10500
Cu392      Cu  0.85668839  0.50087385  0.04354841     0.44200
Cu393      Cu  0.83557183  0.44105635  0.06246408     0.42000
Cu394      Cu  0.77265355  0.46219440  0.04255166     0.43900
N395        N  0.82428000  0.50546011  0.03174426    -0.33100
N396        N  0.79321542  0.49001081  0.03106509    -0.27300
C397        C  0.78060528  0.49435480  0.02208021    -0.03400
C398        C  0.80527888  0.51344455  0.01692624     0.08800
C399        C  0.83247240  0.51995515  0.02329081     0.02600
H400        H  0.75611940  0.48334352  0.01944262     0.10200
H401        H  0.85726700  0.53279151  0.02175139     0.09300
N402        N  0.75867920  0.43940341  0.05553125    -0.34500
N403        N  0.78042912  0.43197096  0.06272507    -0.26700
C404        C  0.76116851  0.41881376  0.07002490    -0.02000
C405        C  0.72599471  0.41810624  0.06725568     0.06700
C406        C  0.72550643  0.43120012  0.05805424     0.04800
H407        H  0.77192822  0.41058274  0.07685750     0.09900
H408        H  0.70260762  0.43485890  0.05351769     0.08700
N409        N  0.10245377  0.45905442  0.05407321    -0.25700
N410        N  0.09885238  0.47972693  0.04652355    -0.33600
C411        C  0.06505901  0.48887467  0.04550357     0.02600
C412        C  0.04572355  0.47341393  0.05268908     0.08700
C413        C  0.07025027  0.45449982  0.05807337    -0.04400
H414        H  0.05505827  0.50514413  0.03974631     0.09300
H415        H  0.06509248  0.43860298  0.06433826     0.10500
Cu416      Cu  0.13812783  0.49291016  0.03703672     0.44200
Cu417      Cu  0.15258020  0.43927666  0.05774602     0.42000
Cu418      Cu  0.22011318  0.45258476  0.03814855     0.43900
N419        N  0.17335905  0.49648441  0.02589827    -0.33100
N420        N  0.20387318  0.48002160  0.02591988    -0.27300
C421        C  0.21896582  0.48423206  0.01724422    -0.03400
C422        C  0.19671723  0.50443016  0.01153328     0.08800
C423        C  0.16808213  0.51166527  0.01733825     0.02600
H424        H  0.24384977  0.47280184  0.01516081     0.10200
H425        H  0.14427661  0.52558546  0.01542976     0.09300
N426        N  0.23019663  0.43233488  0.05184773    -0.34500
N427        N  0.20684822  0.42766795  0.05879075    -0.26700
C428        C  0.22398135  0.41581728  0.06666146    -0.02000
C429        C  0.25948735  0.41308430  0.06457306     0.06700
C430        C  0.26241360  0.42362944  0.05515352     0.04800
H431        H  0.21156489  0.41012217  0.07344809     0.09900
H432        H  0.28636332  0.42542191  0.05101835     0.08700
N433        N  0.88959474  0.04399644  0.05049812    -0.25700
N434        N  0.89861479  0.04194523  0.04137510    -0.33600
C435        C  0.93378147  0.03922530  0.04071634     0.02600
C436        C  0.94824893  0.03941553  0.04987829     0.08700
C437        C  0.91931090  0.04277371  0.05591051    -0.04400
H438        H  0.94762900  0.03689896  0.03399328     0.09300
H439        H  0.91981517  0.04327973  0.06366485     0.10500
Cu440      Cu  0.86298145  0.04067941  0.03005565     0.44200
Cu441      Cu  0.83614220  0.04677805  0.05458474     0.42000
Cu442      Cu  0.77043663  0.04174443  0.03453726     0.43900
N443        N  0.82545197  0.03540793  0.01929410    -0.33100
N444        N  0.79114857  0.03520239  0.02080211    -0.27300
C445        C  0.77444764  0.02949295  0.01236168    -0.03400
C446        C  0.79952908  0.02617654  0.00521499     0.08800
C447        C  0.83155559  0.03001994  0.00993284     0.02600
H448        H  0.74617610  0.02751977  0.01149799     0.10200
H449        H  0.85759565  0.02805137  0.00689099     0.09300
N450        N  0.75780672  0.04821281  0.04901267    -0.34500
N451        N  0.78086039  0.04984166  0.05619039    -0.26700
C452        C  0.76303502  0.05500712  0.06443580    -0.02000
C453        C  0.72734437  0.05662660  0.06234033     0.06700
C454        C  0.72506426  0.05234080  0.05251987     0.04800
H455        H  0.77523182  0.05819651  0.07141470     0.09900
H456        H  0.70135018  0.05295471  0.04818710     0.08700
N457        N  0.10457343  0.01627273  0.05176315    -0.25700
N458        N  0.10075239  0.99590953  0.04413036    -0.33600
C459        C  0.06677333  0.99423043  0.04158250     0.02600
C460        C  0.04731835  0.01430119  0.04783448     0.08700
C461        C  0.07211649  0.02802171  0.05430640    -0.04400
H462        H  0.05706663  0.98068679  0.03525856     0.09300
H463        H  0.06717768  0.04653432  0.06004671     0.10500
Cu464      Cu  0.14114497  0.97543295  0.03614048     0.44200
Cu465      Cu  0.15621387  0.02762388  0.05692899     0.42000
Cu466      Cu  0.22848141  0.99863516  0.03968583     0.43900
N467        N  0.17914275  0.96408009  0.02617810    -0.33100
N468        N  0.21238150  0.97345407  0.02715777    -0.27300
C469        C  0.22963273  0.96533609  0.01900188    -0.03400
C470        C  0.20578743  0.95002084  0.01263265     0.08800
C471        C  0.17404046  0.94987146  0.01748999     0.02600
H472        H  0.25712640  0.97099805  0.01770278     0.10200
H473        H  0.14852076  0.94171297  0.01482713     0.09300
N474        N  0.23612431  0.02226627  0.05302039    -0.34500
N475        N  0.21158090  0.03260763  0.05916513    -0.26700
C476        C  0.22802889  0.04676726  0.06690870    -0.02000
C477        C  0.26416223  0.04503660  0.06551904     0.06700
C478        C  0.26819264  0.02949075  0.05667879     0.04800
H479        H  0.21468696  0.05775476  0.07305552     0.09900
H480        H  0.29275466  0.02401912  0.05308425     0.08700
C481        C  0.34906905  0.38760212  0.16340663     0.88100
C482        C  0.34206021  0.39364870  0.15266621    -0.52200
C483        C  0.35721314  0.36890941  0.14690265     0.11000
C484        C  0.37778262  0.34046396  0.15236467     0.22000
C485        C  0.33619330  0.34978065  0.16538884    -0.52900
C486        C  0.35145431  0.32511269  0.15956954     0.11100
C487        C  0.38929694  0.38577038  0.16435263    -0.52400
C488        C  0.40417511  0.36105287  0.15857357     0.11700
H489        H  0.32708778  0.41573633  0.14988023     0.16200
H490        H  0.39022214  0.32044141  0.14765534     0.01900
H491        H  0.31750090  0.34312181  0.17096595     0.16500
H492        H  0.40461720  0.40249714  0.16914825     0.16300
C493        C  0.33908046  0.37584977  0.08219570     0.88100
C494        C  0.33336525  0.38268684  0.09293963    -0.52200
C495        C  0.35785587  0.36690570  0.09868962     0.11000
C496        C  0.38579352  0.34576300  0.09320065     0.22000
C497        C  0.37721691  0.38794712  0.08023855    -0.52900
C498        C  0.40172453  0.37200813  0.08602732     0.11100
C499        C  0.34000930  0.33566459  0.08120058    -0.52400
C500        C  0.36444392  0.32000461  0.08694661     0.11700
H501        H  0.31172275  0.39818759  0.09574152     0.16200
H502        H  0.40556537  0.33273605  0.09789676     0.01900
H503        H  0.38417227  0.40674717  0.07470686     0.16500
H504        H  0.32286593  0.32089908  0.07638268     0.16300
C505        C  0.34490548  0.08715470  0.08200299     0.88100
C506        C  0.34532146  0.12714769  0.08050715    -0.52200
C507        C  0.37027465  0.14415930  0.08584284     0.11000
C508        C  0.39273052  0.11984292  0.09215330     0.22000
C509        C  0.38284119  0.07513988  0.07982205    -0.52900
C510        C  0.40793261  0.09245643  0.08516232     0.11100
C511        C  0.34066228  0.08231722  0.09286675    -0.52400
C512        C  0.36567698  0.09953836  0.09816068     0.11700
H513        H  0.32695153  0.14086746  0.07583757     0.16200
H514        H  0.41292022  0.13398293  0.09650594     0.01900
H515        H  0.38921921  0.05528943  0.07449633     0.16500
H516        H  0.31933118  0.06742124  0.09607960     0.16300
C517        C  0.35033954  0.08629810  0.16253253     0.88100
C518        C  0.39038868  0.08763803  0.16402465    -0.52200
C519        C  0.40670341  0.11258597  0.15861269     0.11000
C520        C  0.38170718  0.13402455  0.15223195     0.22000
C521        C  0.33758993  0.12403980  0.16459310    -0.52900
C522        C  0.35419361  0.14903257  0.15917411     0.11100
C523        C  0.34525836  0.08116790  0.15167703    -0.52400
C524        C  0.36175728  0.10618463  0.14630613     0.11700
H525        H  0.40463311  0.06991614  0.16875281     0.16200
H526        H  0.39524245  0.15424101  0.14782348     0.01900
H527        H  0.31772213  0.13038562  0.16988821     0.16500
H528        H  0.33055889  0.05941207  0.14852992     0.16300
C529        C  0.64178372  0.37708556  0.08230828     0.88100
C530        C  0.64114095  0.33727999  0.08044795    -0.52200
C531        C  0.61610389  0.31988294  0.08554939     0.11000
C532        C  0.59382775  0.34359042  0.09202059     0.22000
C533        C  0.60382321  0.38955397  0.08013946    -0.52900
C534        C  0.57868966  0.37179097  0.08528127     0.11100
C535        C  0.64604245  0.38074547  0.09322734    -0.52400
C536        C  0.62092509  0.36312414  0.09827713     0.11700
H537        H  0.65944468  0.32393085  0.07571767     0.16200
H538        H  0.57361029  0.32909219  0.09619330     0.01900
H539        H  0.59750497  0.41015003  0.07503276     0.16500
H540        H  0.66737058  0.39527956  0.09664790     0.16300
C541        C  0.63583713  0.37885713  0.16243713     0.88100
C542        C  0.59587224  0.37754664  0.16388496    -0.52200
C543        C  0.57947072  0.35198214  0.15864569     0.11000
C544        C  0.60430562  0.32985440  0.15245144     0.22000
C545        C  0.64876847  0.34135347  0.16478957    -0.52900
C546        C  0.63207380  0.31570074  0.15951318     0.11100
C547        C  0.64063852  0.38270393  0.15156022    -0.52400
C548        C  0.62405834  0.35701523  0.14636105     0.11700
H549        H  0.58169158  0.39578319  0.16846187     0.16200
H550        H  0.59068195  0.30913208  0.14816837     0.01900
H551        H  0.66891988  0.33567696  0.17011543     0.16500
H552        H  0.65517168  0.40413016  0.14826970     0.16300
C553        C  0.63686152  0.07700540  0.16142391     0.88100
C554        C  0.64358979  0.07213951  0.15064986    -0.52200
C555        C  0.62863650  0.09768882  0.14510394     0.11000
C556        C  0.60837467  0.12572062  0.15082168     0.22000
C557        C  0.65019014  0.11444000  0.16379798    -0.52900
C558        C  0.63504340  0.13995594  0.15821859     0.11100
C559        C  0.59673484  0.07917305  0.16234885    -0.52400
C560        C  0.58192080  0.10472121  0.15682919     0.11700
H561        H  0.65838609  0.05028717  0.14767799     0.16200
H562        H  0.59602517  0.14641620  0.14630603     0.01900
H563        H  0.66900425  0.12024673  0.16948206     0.16500
H564        H  0.58142423  0.06223197  0.16702011     0.16300
C565        C  0.64728928  0.08883451  0.08032745     0.88100
C566        C  0.65356048  0.08205994  0.09107599    -0.52200
C567        C  0.62910036  0.09755579  0.09685164     0.11000
C568        C  0.60065144  0.11823136  0.09139362     0.22000
C569        C  0.60919916  0.07624363  0.07834943    -0.52900
C570        C  0.58476763  0.09185039  0.08418252     0.11100
C571        C  0.64573541  0.12902243  0.07941569    -0.52400
C572        C  0.62134436  0.14426828  0.08519799     0.11700
H573        H  0.67564768  0.06704265  0.09386024     0.16200
H574        H  0.58091629  0.13099416  0.09611300     0.01900
H575        H  0.60222192  0.05742215  0.07277794     0.16500
H576        H  0.66255350  0.14410641  0.07465962     0.16300
N577        N  0.88006252  0.55281837  0.94615649    -0.25700
N578        N  0.88560611  0.54875835  0.95543871    -0.33600
C579        C  0.91997010  0.55130541  0.95738248     0.02600
C580        C  0.93781787  0.55734128  0.94898758     0.08700
C581        C  0.91171550  0.55820405  0.94189138    -0.04400
H582        H  0.93122532  0.54929956  0.96450841     0.09300
H583        H  0.91536841  0.56290919  0.93431438     0.10500
Cu584      Cu  0.84733355  0.54084644  0.96548207     0.44200
Cu585      Cu  0.82771938  0.55074047  0.94099757     0.42000
Cu586      Cu  0.75832545  0.53077125  0.96019269     0.43900
N587        N  0.81093815  0.53179565  0.97595951    -0.33100
N588        N  0.77712785  0.52698207  0.97421856    -0.27300
C589        C  0.76081203  0.52026188  0.98259996    -0.03400
C590        C  0.78584510  0.52130191  0.98990570     0.08800
C591        C  0.81730144  0.52859326  0.98536177     0.02600
H592        H  0.73294898  0.51497259  0.98333035     0.10200
H593        H  0.84325936  0.53056009  0.98854383     0.09300
N594        N  0.74879323  0.54024943  0.94566225    -0.34500
N595        N  0.77254750  0.54751164  0.93898136    -0.26700
C596        C  0.75539625  0.55450301  0.93070202    -0.02000
C597        C  0.71957335  0.55141898  0.93224358     0.06700
C598        C  0.71634025  0.54245863  0.94176794     0.04800
H599        H  0.76805748  0.56258057  0.92413298     0.09900
H600        H  0.69210052  0.53922160  0.94571224     0.08700
N601        N  0.09522615  0.56875555  0.94092377    -0.25700
N602        N  0.08858561  0.57486799  0.95005734    -0.33600
C603        C  0.05378712  0.57604909  0.95142448     0.02600
C604        C  0.03673366  0.56990382  0.94275968     0.08700
C605        C  0.06404050  0.56570172  0.93619782    -0.04400
H606        H  0.04217678  0.57972729  0.95840736     0.09300
H607        H  0.06136221  0.55949754  0.92865281     0.10500
Cu608      Cu  0.12544451  0.57441900  0.96095316     0.44200
Cu609      Cu  0.14781320  0.56319111  0.93638428     0.42000
Cu610      Cu  0.21083751  0.54428710  0.95683154     0.43900
N611        N  0.15807360  0.55871429  0.97199802    -0.33100
N612        N  0.18968649  0.54537552  0.97063208    -0.27300
C613        C  0.20262725  0.53434140  0.97916867    -0.03400
C614        C  0.17762738  0.54135833  0.98617463     0.08800
C615        C  0.14995697  0.55683667  0.98132702     0.02600
H616        H  0.22797409  0.52196251  0.98016531     0.10200
H617        H  0.12508345  0.56505584  0.98432701     0.09300
N618        N  0.22502672  0.55322220  0.94255994    -0.34500
N619        N  0.20323885  0.56036768  0.93534206    -0.26700
C620        C  0.22261829  0.56685530  0.92744112    -0.02000
C621        C  0.25793674  0.56342373  0.92979388     0.06700
C622        C  0.25845060  0.55493743  0.93940365     0.04800
H623        H  0.21181349  0.57433422  0.92054804     0.09900
H624        H  0.28151578  0.55124808  0.94387423     0.08700
N625        N  0.89138513  0.94280846  0.93535929    -0.25700
N626        N  0.90145324  0.96387850  0.94241290    -0.33600
C627        C  0.93668597  0.96382800  0.94307628     0.02600
C628        C  0.94996829  0.94145800  0.93613737     0.08700
C629        C  0.92042692  0.92885865  0.93127451    -0.04400
H630        H  0.95139605  0.97758291  0.94859985     0.09300
H631        H  0.91999831  0.90912906  0.92566768     0.10500
Cu632      Cu  0.86759074  0.98639910  0.95218295     0.44200
Cu633      Cu  0.83784893  0.93185923  0.93298023     0.42000
Cu634      Cu  0.77805256  0.95953005  0.95292774     0.43900
N635        N  0.83518944  0.99731451  0.96364413    -0.33100
N636        N  0.80223616  0.98643731  0.96428958    -0.27300
C637        C  0.79025294  0.99410722  0.97316433    -0.03400
C638        C  0.81728003  0.01051283  0.97827254     0.08800
C639        C  0.84510751  0.01209843  0.97197447     0.02600
H640        H  0.76449313  0.98696438  0.97579617     0.10200
H641        H  0.87142234  0.02163018  0.97351459     0.09300
N642        N  0.76172385  0.93616630  0.94004165    -0.34500
N643        N  0.78276258  0.92661488  0.93293306    -0.26700
C644        C  0.76285475  0.91364487  0.92569696    -0.02000
C645        C  0.72788765  0.91517432  0.92836522     0.06700
C646        C  0.72809157  0.92944048  0.93747910     0.04800
H647        H  0.77311068  0.90394153  0.91897119     0.09900
H648        H  0.70544659  0.93480081  0.94191629     0.08700
N649        N  0.10202288  0.90893928  0.94187984    -0.25700
N650        N  0.09431742  0.90097714  0.95084409    -0.33600
C651        C  0.05966321  0.90446647  0.95223127     0.02600
C652        C  0.04412487  0.91506754  0.94377887     0.08700
C653        C  0.07173693  0.91763093  0.93727215    -0.04400
H654        H  0.04700356  0.90205567  0.95913306     0.09300
H655        H  0.07029977  0.92763453  0.93002333     0.10500
Cu656      Cu  0.13085486  0.89397727  0.96160775     0.44200
Cu657      Cu  0.15507866  0.91124354  0.93755672     0.42000
Cu658      Cu  0.22082918  0.91126382  0.95800156     0.43900
N659        N  0.16545715  0.90230281  0.97279315    -0.33100
N660        N  0.19900832  0.91036609  0.97169262    -0.27300
C661        C  0.21295086  0.91838818  0.98037756    -0.03400
C662        C  0.18652752  0.91495364  0.98717413     0.08800
C663        C  0.15703807  0.90469910  0.98207865     0.02600
H664        H  0.23983634  0.92679510  0.98159611     0.10200
H665        H  0.13079067  0.90082642  0.98487416     0.09300
N666        N  0.23328019  0.91023267  0.94342321    -0.34500
N667        N  0.21041658  0.91039139  0.93618164    -0.26700
C668        C  0.22853382  0.90873991  0.92788746    -0.02000
C669        C  0.26417269  0.90769341  0.93001573     0.06700
C670        C  0.26617943  0.90844596  0.93989596     0.04800
H671        H  0.21658268  0.90755357  0.92083260     0.09900
H672        H  0.28982953  0.90701881  0.94423925     0.08700
N673        N  0.30114296  0.33202486  0.80169862    -0.25700
N674        N  0.29502766  0.32447281  0.79258424    -0.33600
C675        C  0.29241335  0.28954471  0.79145164     0.02600
C676        C  0.29692251  0.27353290  0.80027562     0.08700
C677        C  0.30277413  0.30135999  0.80663294    -0.04400
H678        H  0.28741663  0.27692794  0.78461798     0.09300
H679        H  0.30699164  0.29944244  0.81429038     0.10500
Cu680      Cu  0.28832412  0.36077500  0.78179130     0.44200
Cu681      Cu  0.30506939  0.38488446  0.80638192     0.42000
Cu682      Cu  0.28534912  0.45116351  0.78712799     0.43900
N683        N  0.27728241  0.39789760  0.77147702    -0.33100
N684        N  0.27522151  0.43190782  0.77331073    -0.27300
C685        C  0.26623106  0.44876801  0.76513837    -0.03400
C686        C  0.26273926  0.42400766  0.75783471     0.08800
C687        C  0.26989050  0.39202839  0.76219429     0.02600
H688        H  0.26249789  0.47690507  0.76454495     0.10200
H689        H  0.26911088  0.36612031  0.75897535     0.09300
N690        N  0.29941933  0.46331515  0.80130471    -0.34500
N691        N  0.30671521  0.44024113  0.80816584    -0.26700
C692        C  0.31617688  0.45820107  0.81616807    -0.02000
C693        C  0.31467508  0.49398858  0.81424187     0.06700
C694        C  0.30403911  0.49615818  0.80478039     0.04800
H695        H  0.32424766  0.44608806  0.82283786     0.09900
H696        H  0.30066214  0.51993950  0.80062759     0.08700
N697        N  0.28147364  0.11709222  0.79922617    -0.25700
N698        N  0.25954570  0.12108932  0.79191027    -0.33600
C699        C  0.25499853  0.15538102  0.79014220     0.02600
C700        C  0.27476919  0.17465208  0.79659166     0.08700
C701        C  0.29140388  0.14957602  0.80232440    -0.04400
H702        H  0.23935565  0.16560737  0.78427187     0.09300
H703        H  0.31016735  0.15451455  0.80803872     0.10500
Cu704      Cu  0.23923043  0.08133435  0.78345792     0.44200
Cu705      Cu  0.29663928  0.06609227  0.80372725     0.42000
Cu706      Cu  0.26753688  0.99499690  0.78652997     0.43900
N707        N  0.22827824  0.04283793  0.77345355    -0.33100
N708        N  0.23991922  0.01031133  0.77424614    -0.27300
C709        C  0.23207509  0.99268552  0.76608085    -0.03400
C710        C  0.21448583  0.01538870  0.75990696     0.08800
C711        C  0.21267293  0.04698238  0.76488172     0.02600
H712        H  0.23950275  0.96572778  0.76462631     0.10200
H713        H  0.20259349  0.07184094  0.76232158     0.09300
N714        N  0.29245282  0.98656648  0.79973443    -0.34500
N715        N  0.30309762  0.01119911  0.80588020    -0.26700
C716        C  0.31692098  0.99504818  0.81367694    -0.02000
C717        C  0.31462913  0.95885617  0.81236106     0.06700
C718        C  0.29911380  0.95458118  0.80346840     0.04800
H719        H  0.32732324  0.00862953  0.81990983     0.09900
H720        H  0.29260429  0.92990551  0.79998972     0.08700
N721        N  0.67431673  0.11890895  0.79941925    -0.25700
N722        N  0.68646256  0.12385945  0.79066789    -0.33600
C723        C  0.68538086  0.15801140  0.78847440     0.02600
C724        C  0.67219091  0.17633064  0.79615541     0.08700
C725        C  0.66534856  0.15079806  0.80308990    -0.04400
H726        H  0.69283262  0.16870731  0.78158780     0.09300
H727        H  0.65360409  0.15490606  0.81005108     0.10500
Cu728      Cu  0.70091508  0.08534999  0.78120154     0.44200
Cu729      Cu  0.67013249  0.06704375  0.80470907     0.42000
Cu730      Cu  0.69307441  0.99716195  0.78582750     0.43900
N731        N  0.70684716  0.04886201  0.77050728    -0.33100
N732        N  0.70376111  0.01479470  0.77200904    -0.27300
C733        C  0.70673398  0.99785855  0.76352402    -0.03400
C734        C  0.71145582  0.02286892  0.75637853     0.08800
C735        C  0.71156328  0.05489275  0.76114284     0.02600
H736        H  0.70465881  0.96965376  0.76258070     0.10200
H737        H  0.71446091  0.08085419  0.75808726     0.09300
N738        N  0.67996519  0.98811046  0.80012772    -0.34500
N739        N  0.67145906  0.01186575  0.80673111    -0.26700
C740        C  0.66335889  0.99470028  0.81490527    -0.02000
C741        C  0.66714963  0.95888737  0.81334962     0.06700
C742        C  0.67756711  0.95571883  0.80395260     0.04800
H743        H  0.65472843  0.00733683  0.82144009     0.09900
H744        H  0.68228216  0.93151437  0.80006761     0.08700
N745        N  0.66275318  0.33413400  0.80282535    -0.25700
N746        N  0.65870307  0.32689702  0.79362750    -0.33600
C747        C  0.65600662  0.29206565  0.79237610     0.02600
C748        C  0.65883147  0.27571574  0.80122663     0.08700
C749        C  0.66282040  0.30339908  0.80773131    -0.04400
H750        H  0.65369123  0.27987567  0.78539255     0.09300
H751        H  0.66691244  0.30121005  0.81538977     0.10500
Cu752      Cu  0.66336071  0.36315732  0.78279656     0.44200
Cu753      Cu  0.66954762  0.38669594  0.80726391     0.42000
Cu754      Cu  0.68537202  0.45152731  0.78701479     0.43900
N755        N  0.68111470  0.39562388  0.77208813    -0.33100
N756        N  0.69047912  0.42876628  0.77340277    -0.27300
C757        C  0.70438319  0.44104991  0.76513420    -0.03400
C758        C  0.70368039  0.41384576  0.75842169     0.08800
C759        C  0.68879900  0.38571897  0.76312634     0.02600
H760        H  0.71551414  0.46704894  0.76422739     0.10200
H761        H  0.68523375  0.35930809  0.76035527     0.09300
N762        N  0.67604933  0.46454263  0.80140845    -0.34500
N763        N  0.67101732  0.44198410  0.80854005    -0.26700
C764        C  0.66449434  0.46040656  0.81662424    -0.02000
C765        C  0.66544474  0.49594112  0.81449599     0.06700
C766        C  0.67269527  0.49760365  0.80481666     0.04800
H767        H  0.65839216  0.44872528  0.82348658     0.09900
H768        H  0.67450125  0.52112849  0.80048823     0.08700
C769        C  0.34434076  0.87951177  0.91186962     0.88100
C770        C  0.34556034  0.83943761  0.91305142    -0.52200
C771        C  0.36966241  0.82344401  0.90734752     0.11000
C772        C  0.39045706  0.84871738  0.90094328     0.22000
C773        C  0.38249270  0.89195046  0.91373076    -0.52900
C774        C  0.40666081  0.87558230  0.90798165     0.11100
C775        C  0.33788927  0.88540126  0.90108821    -0.52400
C776        C  0.36204537  0.86913230  0.89536841     0.11700
H777        H  0.32864645  0.82493983  0.91791798     0.16200
H778        H  0.40999535  0.83531945  0.89629564     0.01900
H779        H  0.38973335  0.91105898  0.91920593     0.16500
H780        H  0.31575994  0.90020793  0.89824511     0.16300
C781        C  0.34914396  0.87944630  0.83051525     0.88100
C782        C  0.38948041  0.87894237  0.83021512    -0.52200
C783        C  0.40421858  0.85459555  0.83614222     0.11000
C784        C  0.37757098  0.83277850  0.84184025     0.22000
C785        C  0.33792274  0.84117409  0.82820598    -0.52900
C786        C  0.35300163  0.81667801  0.83416567     0.11100
C787        C  0.34023027  0.88481931  0.84117556    -0.52400
C788        C  0.35530661  0.86043905  0.84710159     0.11700
H789        H  0.40503615  0.89655689  0.82579381     0.16200
H790        H  0.38998542  0.81309644  0.84667021     0.01900
H791        H  0.32040844  0.83414045  0.82232110     0.16500
H792        H  0.32464421  0.90668230  0.84381988     0.16300
C793        C  0.63498110  0.87840871  0.83106430     0.88100
C794        C  0.64426138  0.88311561  0.84173037    -0.52200
C795        C  0.62905771  0.85846890  0.84749750     0.11000
C796        C  0.60616399  0.83142035  0.84211806     0.22000
C797        C  0.64571357  0.84029439  0.82859957    -0.52900
C798        C  0.63044514  0.81568758  0.83444202     0.11100
C799        C  0.59464344  0.87832506  0.83068200    -0.52400
C800        C  0.57968055  0.85377243  0.83647350     0.11700
H801        H  0.66051761  0.90447029  0.84448739     0.16200
H802        H  0.59366421  0.81153334  0.84685068     0.01900
H803        H  0.66330176  0.83347425  0.82277490     0.16500
H804        H  0.57927018  0.89632484  0.82630416     0.16300
C805        C  0.64574014  0.87603020  0.91201972     0.88100
C806        C  0.65198375  0.88089148  0.90122940    -0.52200
C807        C  0.62755300  0.86424856  0.89560681     0.11000
C808        C  0.59905625  0.84446075  0.90124865     0.22000
C809        C  0.60779817  0.88881465  0.91373582    -0.52900
C810        C  0.58331786  0.87208669  0.90807412     0.11100
C811        C  0.64424157  0.83605756  0.91347753    -0.52400
C812        C  0.61982191  0.81963982  0.90783369     0.11700
H813        H  0.67410160  0.89546268  0.89831006     0.16200
H814        H  0.57928360  0.83080535  0.89664583     0.01900
H815        H  0.60092589  0.90863553  0.91902326     0.16500
H816        H  0.66127819  0.82194926  0.91842744     0.16300
C817        C  0.64253212  0.58754408  0.91384707     0.88100
C818        C  0.64287399  0.62782780  0.91464081    -0.52200
C819        C  0.61975415  0.64384996  0.90857068     0.11000
C820        C  0.59846330  0.61837635  0.90223267     0.22000
C821        C  0.60384429  0.57688699  0.91548629    -0.52900
C822        C  0.58073621  0.59321441  0.90938121     0.11100
C823        C  0.64953236  0.57976925  0.90321433    -0.52400
C824        C  0.62649664  0.59604256  0.89713892     0.11700
H825        H  0.65986520  0.64236193  0.91954990     0.16200
H826        H  0.57979010  0.63171833  0.89727628     0.01900
H827        H  0.59550417  0.55880664  0.92105411     0.16500
H828        H  0.67118926  0.56359521  0.90071746     0.16300
C829        C  0.63419291  0.57642008  0.83251251     0.88100
C830        C  0.59382619  0.57623132  0.83261738    -0.52200
C831        C  0.57973644  0.60085587  0.83856882     0.11000
C832        C  0.60707482  0.62354521  0.84388351     0.22000
C833        C  0.64439675  0.61449841  0.82990984    -0.52900
C834        C  0.63008756  0.63919620  0.83589233     0.11100
C835        C  0.64513533  0.57202527  0.84307865    -0.52400
C836        C  0.63074484  0.59668483  0.84902409     0.11700
H837        H  0.57780254  0.55816544  0.82838681     0.16200
H838        H  0.59529627  0.64351302  0.84873437     0.01900
H839        H  0.66083079  0.62127454  0.82383688     0.16500
H840        H  0.66162530  0.55069090  0.84565623     0.16300
C841        C  0.34936226  0.57609506  0.83159981     0.88100
C842        C  0.33975028  0.57241754  0.84225591    -0.52200
C843        C  0.35476940  0.59761688  0.84798026     0.11000
C844        C  0.37767944  0.62427734  0.84257015     0.22000
C845        C  0.33873431  0.61404431  0.82886643    -0.52900
C846        C  0.35372521  0.63932678  0.83464761     0.11100
C847        C  0.38977243  0.57625098  0.83148917    -0.52400
C848        C  0.40444558  0.60140055  0.83725026     0.11700
H849        H  0.32372968  0.55110081  0.84505447     0.16200
H850        H  0.38998359  0.64460178  0.84726949     0.01900
H851        H  0.32145497  0.62027120  0.82288053     0.16500
H852        H  0.40537890  0.55771754  0.82737151     0.16300
C853        C  0.34112465  0.59302360  0.91265688     0.88100
C854        C  0.33524147  0.58528479  0.90194861    -0.52200
C855        C  0.35995375  0.60021980  0.89616060     0.11000
C856        C  0.38835576  0.62140730  0.90158341     0.22000
C857        C  0.37901603  0.58054872  0.91482206    -0.52900
C858        C  0.40376726  0.59563324  0.90898090     0.11100
C859        C  0.34289354  0.63324683  0.91337923    -0.52400
C860        C  0.36761104  0.64799235  0.90760828     0.11700
H861        H  0.31313579  0.57006595  0.89918508     0.16200
H862        H  0.40834090  0.63374147  0.89685548     0.01900
H863        H  0.38564020  0.56221089  0.92050932     0.16500
H864        H  0.32600957  0.64872660  0.91802318     0.16300
N865        N  0.37556905  0.53441576  0.55533895    -0.25700
N866        N  0.38467605  0.51788318  0.54739089    -0.33600
C867        C  0.41958131  0.52006426  0.54622285     0.02600
C868        C  0.43385665  0.53914260  0.55375856     0.08700
C869        C  0.40515692  0.54754713  0.55950622    -0.04400
H870        H  0.43337535  0.50920802  0.54013540     0.09300
H871        H  0.40560697  0.56335606  0.56596723     0.10500
Cu872      Cu  0.35004320  0.49604049  0.53765504     0.44200
Cu873      Cu  0.32201953  0.53918056  0.55905975     0.42000
Cu874      Cu  0.25862912  0.50630615  0.54008547     0.43900
N875        N  0.31505004  0.47966916  0.52724193    -0.33100
N876        N  0.28069127  0.48393574  0.52786063    -0.27300
C877        C  0.26557539  0.47224509  0.51966055    -0.03400
C878        C  0.29189341  0.45988480  0.51366522     0.08800
C879        C  0.32290388  0.46519090  0.51874709     0.02600
H880        H  0.23762700  0.47297675  0.51813464     0.10200
H881        H  0.34945877  0.46005097  0.51638888     0.09300
N882        N  0.24455409  0.52738560  0.55334737    -0.34500
N883        N  0.26655449  0.53887955  0.56010399    -0.26700
C884        C  0.24741892  0.55009770  0.56764489    -0.02000
C885        C  0.21206463  0.54531826  0.56552375     0.06700
C886        C  0.21121970  0.53103686  0.55643052     0.04800
H887        H  0.25844310  0.56104309  0.57417625     0.09900
H888        H  0.18804348  0.52383774  0.55231690     0.08700
N889        N  0.58720266  0.56350928  0.54851590    -0.25700
N890        N  0.58047287  0.57253000  0.53954606    -0.33600
C891        C  0.54560650  0.57280457  0.53806934     0.02600
C892        C  0.52896591  0.56345513  0.54644837     0.08700
C893        C  0.55615477  0.55778406  0.55301162    -0.04400
H894        H  0.53329048  0.57654523  0.53112977     0.09300
H895        H  0.55367193  0.54766067  0.56022095     0.10500
Cu896      Cu  0.61757313  0.57456239  0.52881566     0.44200
Cu897      Cu  0.63951825  0.55587607  0.55311267     0.42000
Cu898      Cu  0.70495504  0.54670352  0.53322841     0.43900
N899        N  0.65053535  0.55806229  0.51799526    -0.33100
N900        N  0.68281142  0.54634860  0.51946161    -0.27300
C901        C  0.69512520  0.53298784  0.51113582    -0.03400
C902        C  0.66896688  0.53643215  0.50417749     0.08800
C903        C  0.64129735  0.55246173  0.50881755     0.02600
H904        H  0.72043229  0.52037843  0.51033787     0.10200
H905        H  0.61553840  0.55802542  0.50585070     0.09300
N906        N  0.71765999  0.55080667  0.54782317    -0.34500
N907        N  0.69462194  0.55377103  0.55490004    -0.26700
C908        C  0.71248705  0.55779159  0.56323217    -0.02000
C909        C  0.74820058  0.55727278  0.56131288     0.06700
C910        C  0.75050799  0.55292471  0.55150083     0.04800
H911        H  0.70033758  0.56211755  0.57013133     0.09900
H912        H  0.77432274  0.55256738  0.54728206     0.08700
N913        N  0.38601805  0.91497601  0.55233967    -0.25700
N914        N  0.39463461  0.91966350  0.54326922    -0.33600
C915        C  0.42965496  0.92225049  0.54249983     0.02600
C916        C  0.44460373  0.91937712  0.55153348     0.08700
C917        C  0.41606688  0.91437222  0.55763419    -0.04400
H918        H  0.44311441  0.92621310  0.53577343     0.09300
H919        H  0.41706512  0.91150071  0.56534582     0.10500
Cu920      Cu  0.35947189  0.92442751  0.53208198     0.44200
Cu921      Cu  0.33259510  0.91102967  0.55630319     0.42000
Cu922      Cu  0.26811347  0.92304171  0.53585187     0.43900
N923        N  0.32384101  0.93126674  0.52109116    -0.33100
N924        N  0.28943682  0.93137369  0.52229480    -0.27300
C925        C  0.27379071  0.93699185  0.51371280    -0.03400
C926        C  0.29984641  0.94028055  0.50681657     0.08800
C927        C  0.33122742  0.93663764  0.51182535     0.02600
H928        H  0.24564634  0.93851445  0.51256883     0.10200
H929        H  0.35768248  0.93828292  0.50905463     0.09300
N930        N  0.25486344  0.91132543  0.55000394    -0.34500
N931        N  0.27720839  0.90697873  0.55726221    -0.26700
C932        C  0.25857221  0.89834021  0.56514259    -0.02000
C933        C  0.22316454  0.89728418  0.56270989     0.06700
C934        C  0.22182342  0.90555686  0.55309594     0.04800
H935        H  0.27002711  0.89255050  0.57208052     0.09900
H936        H  0.19855231  0.90660256  0.54859493     0.08700
N937        N  0.60055307  0.93847660  0.55116722    -0.25700
N938        N  0.59614812  0.96052556  0.54393734    -0.33600
C939        C  0.56173534  0.96474506  0.54220768     0.02600
C940        C  0.54287742  0.94451000  0.54856174     0.08700
C941        C  0.56830261  0.92800257  0.55421652    -0.04400
H942        H  0.55113275  0.98036661  0.53639572     0.09300
H943        H  0.56378012  0.90897383  0.55983769     0.10500
Cu944      Cu  0.63560917  0.98130982  0.53551066     0.44200
Cu945      Cu  0.65167435  0.92430275  0.55570111     0.42000
Cu946      Cu  0.72273220  0.95635399  0.53907350     0.43900
N947        N  0.67451575  0.99367565  0.52577273    -0.33100
N948        N  0.70739970  0.98333228  0.52682891    -0.27300
C949        C  0.72564235  0.99209288  0.51890458    -0.03400
C950        C  0.70298725  0.00897708  0.51258518     0.08800
C951        C  0.67075199  0.00941433  0.51722592     0.02600
H952        H  0.75305832  0.98588533  0.51772926     0.10200
H953        H  0.64586915  0.01878275  0.51445228     0.09300
N954        N  0.73100490  0.93206006  0.55221971    -0.34500
N955        N  0.70646711  0.92025752  0.55815072    -0.26700
C956        C  0.72267685  0.90666277  0.56595460    -0.02000
C957        C  0.75873250  0.91040147  0.56483678     0.06700
C958        C  0.76299553  0.92643532  0.55608769     0.04800
H959        H  0.70921990  0.89507945  0.57199649     0.09900
H960        H  0.78762127  0.93356463  0.55273915     0.08700
N961        N  0.77365948  0.11826878  0.68571008    -0.25700
N962        N  0.75239851  0.12673245  0.69280651    -0.33600
C963        C  0.75058684  0.16181687  0.69360237     0.02600
C964        C  0.77211440  0.17692428  0.68675710     0.08700
C965        C  0.78599502  0.14839027  0.68175462    -0.04400
H966        H  0.73599266  0.17514484  0.69916312     0.09300
H967        H  0.80534905  0.14946611  0.67610147     0.10500
Cu968      Cu  0.73263603  0.09159331  0.70265798     0.44200
Cu969      Cu  0.78651491  0.06517766  0.68315837     0.42000
Cu970      Cu  0.76042744  0.00308034  0.70295473     0.43900
N971        N  0.72540367  0.05937115  0.71436387    -0.33100
N972        N  0.73635098  0.02645853  0.71476566    -0.27300
C973        C  0.73171009  0.01436313  0.72377683    -0.03400
C974        C  0.71728765  0.04130784  0.72923937     0.08800
C975        C  0.71368015  0.06924479  0.72301098     0.02600
H976        H  0.73989355  0.98868949  0.72625387     0.10200
H977        H  0.70502295  0.09557396  0.72477653     0.09300
N978        N  0.78392569  0.98840536  0.69004313    -0.34500
N979        N  0.79326977  0.01009753  0.68304683    -0.26700
C980        C  0.80709454  0.99088067  0.67584560    -0.02000
C981        C  0.80628795  0.95574666  0.67842238     0.06700
C982        C  0.79156263  0.95511683  0.68743947     0.04800
H983        H  0.81680962  0.00170011  0.66919446     0.09900
H984        H  0.78654547  0.93212503  0.69179204     0.08700
N985        N  0.79302149  0.33178962  0.69191983    -0.25700
N986        N  0.78852663  0.32685379  0.70121168    -0.33600
C987        C  0.78420646  0.29251222  0.70295740     0.02600
C988        C  0.78589831  0.27424672  0.69442859     0.08700
C989        C  0.79167669  0.29995144  0.68748452    -0.04400
H990        H  0.77830384  0.28171108  0.70994275     0.09300
H991        H  0.79293526  0.29603869  0.67980718     0.10500
Cu992      Cu  0.78216242  0.36609718  0.71129177     0.44200
Cu993      Cu  0.79673997  0.38336405  0.68646665     0.42000
Cu994      Cu  0.77182219  0.45372431  0.70457165     0.43900
N995        N  0.76617551  0.40418295  0.72088018    -0.33100
N996        N  0.76150843  0.43740660  0.71849757    -0.27300
C997        C  0.74900198  0.45506096  0.72617265    -0.03400
C998        C  0.74526600  0.43144820  0.73368917     0.08800
C999        C  0.75668100  0.39950307  0.73003150     0.02600
H1000       H  0.74214256  0.48268454  0.72619836     0.10200
H1001       H  0.75763137  0.37441472  0.73365930     0.09300
N1002       N  0.78737315  0.46240024  0.69048368    -0.34500
N1003       N  0.79678881  0.43824224  0.68409899    -0.26700
C1004       C  0.80688455  0.45487970  0.67601320    -0.02000
C1005       C  0.80340568  0.49080487  0.67741287     0.06700
C1006       C  0.79112537  0.49457638  0.68661897     0.04800
H1007       H  0.81666387  0.44181610  0.66966541     0.09900
H1008       H  0.78612297  0.51902292  0.69036178     0.08700
N1009       N  0.18604839  0.33105974  0.68673363    -0.25700
N1010       N  0.20537677  0.32162985  0.69419304    -0.33600
C1011       C  0.20696879  0.28643997  0.69462796     0.02600
C1012       C  0.18757003  0.27250309  0.68708940     0.08700
C1013       C  0.17495435  0.30162328  0.68213670    -0.04400
H1014       H  0.21994915  0.27211556  0.70032782     0.09300
H1015       H  0.15717837  0.30137086  0.67604778     0.10500
Cu1016     Cu  0.22379726  0.35588275  0.70454563     0.44200
Cu1017     Cu  0.17340111  0.38407927  0.68443353     0.42000
Cu1018     Cu  0.19392402  0.44394764  0.70529524     0.43900
N1019       N  0.23197819  0.38818056  0.71623488    -0.33100
N1020       N  0.22009730  0.42071413  0.71691262    -0.27300
C1021       C  0.22714659  0.43291466  0.72585188    -0.03400
C1022       C  0.24422921  0.40641630  0.73093570     0.08800
C1023       C  0.24676644  0.37871831  0.72457753     0.02600
H1024       H  0.21960623  0.45856702  0.72849659     0.10200
H1025       H  0.25744156  0.35288180  0.72603435     0.09300
N1026       N  0.17256463  0.45975119  0.69210362    -0.34500
N1027       N  0.16565091  0.43878165  0.68469366    -0.26700
C1028       C  0.15400603  0.45858786  0.67731903    -0.02000
C1029       C  0.15364535  0.49341896  0.68020907     0.06700
C1030       C  0.16541432  0.49323041  0.68959210     0.04800
H1031       H  0.14688673  0.44840580  0.67031647     0.09900
H1032       H  0.16921972  0.51585598  0.69421418     0.08700
N1033       N  0.16506725  0.11816429  0.69023023    -0.25700
N1034       N  0.15505212  0.12337770  0.69917758    -0.33600
C1035       C  0.15577669  0.15784070  0.70116634     0.02600
C1036       C  0.16652727  0.17577279  0.69312972     0.08700
C1037       C  0.17219459  0.14984960  0.68623422    -0.04400
H1038       H  0.15124104  0.16889071  0.70821227     0.09300
H1039       H  0.18311821  0.15350381  0.67915637     0.10500
Cu1040     Cu  0.14876474  0.08440873  0.70925355     0.44200
Cu1041     Cu  0.17198983  0.06668867  0.68511511     0.42000
Cu1042     Cu  0.18168226  0.00026362  0.70511837     0.43900
N1043       N  0.16043537  0.05048812  0.72030346    -0.33100
N1044       N  0.17517806  0.01946209  0.71899747    -0.27300
C1045       C  0.18501077  0.00648554  0.72762455    -0.03400
C1046       C  0.17577985  0.03090181  0.73462219     0.08800
C1047       C  0.16020103  0.05818716  0.72968051     0.02600
H1048       H  0.19897027  0.98201081  0.72866177     0.10200
H1049       H  0.15145223  0.08301170  0.73263970     0.09300
N1050       N  0.17722190  0.98870222  0.69053248    -0.40900
N1051       N  0.17343951  0.01172147  0.68345370    -0.26700
C1052       C  0.16767148  0.99383986  0.67521784    -0.02000
C1053       C  0.16800554  0.95821907  0.67723451     0.06700
C1054       C  0.17397798  0.95592104  0.68696133     0.04800
H1055       H  0.16200670  0.00593053  0.66836573     0.09900
H1056       H  0.17415898  0.93219963  0.69123906     0.08700
C1057       C  0.12947202  0.57920781  0.58222468     0.88100
C1058       C  0.13482148  0.57268864  0.59299818    -0.52200
C1059       C  0.10994341  0.58835650  0.59858118     0.11000
C1060       C  0.08193499  0.60893778  0.59291272     0.22000
C1061       C  0.09167667  0.56655662  0.58001017    -0.52900
C1062       C  0.06677219  0.58229967  0.58564192     0.11100
C1063       C  0.12807548  0.61932456  0.58121123    -0.52400
C1064       C  0.10321165  0.63479667  0.58678927     0.11700
H1065       H  0.15674012  0.55783820  0.59594830     0.16200
H1066       H  0.06179886  0.62183061  0.59747609     0.01900
H1067       H  0.08521000  0.54760995  0.57442421     0.16500
H1068       H  0.14538024  0.63422443  0.57654113     0.16300
C1069       C  0.12175475  0.57652812  0.66326860     0.88100
C1070       C  0.12882583  0.56973568  0.65258111    -0.52200
C1071       C  0.11504351  0.59489164  0.64669454     0.11000
C1072       C  0.09568673  0.62451979  0.65198668     0.22000
C1073       C  0.13638028  0.61371860  0.66526847    -0.52900
C1074       C  0.12257618  0.63882307  0.65931439     0.11100
C1075       C  0.08166826  0.58025828  0.66396901    -0.52400
C1076       C  0.06812700  0.60534943  0.65805775     0.11700
H1077       H  0.14259716  0.54671810  0.64990858     0.16200
H1078       H  0.08437563  0.64487869  0.64716389     0.01900
H1079       H  0.15535741  0.61965758  0.67090218     0.16500
H1080       H  0.06537206  0.56405586  0.66858553     0.16300
C1081       C  0.82874049  0.58668957  0.57971587     0.88100
C1082       C  0.83283571  0.62670825  0.57872626    -0.52200
C1083       C  0.85787465  0.64070686  0.58464542     0.11000
C1084       C  0.87668046  0.61370058  0.59099271     0.22000
C1085       C  0.86594890  0.57182366  0.57800270    -0.52900
C1086       C  0.89103211  0.58617217  0.58394641     0.11100
C1087       C  0.82160475  0.58065808  0.59043660    -0.52400
C1088       C  0.84681037  0.59491509  0.59630901     0.11700
H1089       H  0.81695182  0.64261869  0.57390347     0.16200
H1090       H  0.89701434  0.62541518  0.59580932     0.01900
H1091       H  0.87192972  0.55238824  0.57253018     0.16500
H1092       H  0.79851901  0.56702989  0.59312643     0.16300
C1093       C  0.83835220  0.57249862  0.66053534     0.88100
C1094       C  0.87853784  0.57466838  0.66157752    -0.52200
C1095       C  0.89329834  0.60089231  0.65629220     0.11000
C1096       C  0.86683024  0.62243097  0.65042079     0.22000
C1097       C  0.82509732  0.60958321  0.66318925    -0.52900
C1098       C  0.84026171  0.63569596  0.65785175     0.11100
C1099       C  0.83154156  0.56881005  0.64971824    -0.52400
C1100       C  0.84653539  0.59499601  0.64444188     0.11700
H1101       H  0.89390449  0.55711560  0.66608812     0.16200
H1102       H  0.87915217  0.64365475  0.64609851     0.01900
H1103       H  0.80623450  0.61470167  0.66884429     0.16500
H1104       H  0.81678189  0.54719983  0.64651714     0.16300
C1105       C  0.84499592  0.87340581  0.66224657     0.88100
C1106       C  0.83942332  0.87884110  0.65142680    -0.52200
C1107       C  0.85506541  0.85364840  0.64592192     0.11000
C1108       C  0.87453033  0.82526644  0.65168895     0.22000
C1109       C  0.83139768  0.83596782  0.66427172    -0.52900
C1110       C  0.84700088  0.81076351  0.65872026     0.11100
C1111       C  0.88508601  0.87126981  0.66355377    -0.52400
C1112       C  0.90045650  0.84615445  0.65798832     0.11700
H1113       H  0.82537940  0.90111104  0.64839869     0.16200
H1114       H  0.88728337  0.80485716  0.64716945     0.01900
H1115       H  0.81165059  0.82995271  0.66963046     0.16500
H1116       H  0.90006669  0.88877010  0.66821944     0.16300
C1117       C  0.83933587  0.87224727  0.58175187     0.88100
C1118       C  0.83582387  0.87826172  0.59259659    -0.52200
C1119       C  0.86125427  0.86176666  0.59786479     0.11000
C1120       C  0.88789881  0.84100486  0.59184810     0.22000
C1121       C  0.87699822  0.88429207  0.57927841    -0.52900
C1122       C  0.90243754  0.86774155  0.58459940     0.11100
C1123       C  0.83971558  0.83215232  0.58051132    -0.52400
C1124       C  0.86509962  0.81591003  0.58580391     0.11700
H1125       H  0.81463498  0.89326855  0.59582135     0.16200
H1126       H  0.90846309  0.82746316  0.59616782     0.01900
H1127       H  0.88295524  0.90353350  0.57377054     0.16500
H1128       H  0.82124402  0.81783556  0.57596439     0.16300
C1129       C  0.14072688  0.86336647  0.57963161     0.88100
C1130       C  0.13719622  0.82316666  0.57883320    -0.52200
C1131       C  0.11167590  0.80948925  0.58457717     0.11000
C1132       C  0.09208524  0.83689312  0.59057997     0.22000
C1133       C  0.10350706  0.87758190  0.57745087    -0.52900
C1134       C  0.07806066  0.86350323  0.58323066     0.11100
C1135       C  0.14677115  0.87052624  0.59036412    -0.52400
C1136       C  0.12128352  0.85651061  0.59606301     0.11700
H1137       H  0.15361932  0.80699401  0.57424553     0.16200
H1138       H  0.07146973  0.82542810  0.59527202     0.01900
H1139       H  0.09780901  0.89643714  0.57181575     0.16500
H1140       H  0.16952771  0.88455338  0.59320354     0.16300
C1141       C  0.13197847  0.87690173  0.66027993     0.88100
C1142       C  0.09177257  0.87607055  0.66123034    -0.52200
C1143       C  0.07603889  0.85041905  0.65586434     0.11000
C1144       C  0.10175910  0.82798318  0.65001381     0.22000
C1145       C  0.14408715  0.83945906  0.66288776    -0.52900
C1146       C  0.12811067  0.81385271  0.65747437     0.11100
C1147       C  0.13876946  0.88047664  0.64949564    -0.52400
C1148       C  0.12285291  0.85485499  0.64413643     0.11700
H1149       H  0.07707561  0.89412550  0.66573741     0.16200
H1150       H  0.08872947  0.80719221  0.64562213     0.01900
H1151       H  0.16300147  0.83375285  0.66854028     0.16500
H1152       H  0.15411667  0.90167741  0.64637103     0.16300
C1153       C  0.12294446  0.85759131  0.60639358    -0.16900
C1154       C  0.12387228  0.85692004  0.61503719     0.07100
C1155       C  0.12432791  0.85542226  0.62515859     0.09000
C1156       C  0.12406994  0.85455141  0.63380245    -0.17800
C1157       C  0.93993082  0.87324365  0.58330241    -0.16900
C1158       C  0.97166676  0.87506425  0.58261995     0.07100
C1159       C  0.00905423  0.87434922  0.58224834     0.09000
C1160       C  0.04077974  0.87116657  0.58236646    -0.17800
C1161       C  0.93812664  0.84227672  0.65739735    -0.16900
C1162       C  0.96975182  0.84130747  0.65676215     0.07100
C1163       C  0.00682248  0.84248075  0.65610208     0.09000
C1164       C  0.03842835  0.84520768  0.65579675    -0.17800
C1165       C  0.85598740  0.85540105  0.63558138    -0.16900
C1166       C  0.85777394  0.85737144  0.62695822     0.07100
C1167       C  0.85994543  0.85977537  0.61685644     0.09000
C1168       C  0.86112704  0.86131180  0.60821851    -0.17800
C1169       C  0.83932769  0.77351427  0.65954169    -0.16900
C1170       C  0.83511542  0.74196509  0.65990497     0.07100
C1171       C  0.83297652  0.70467116  0.65987516     0.09000
C1172       C  0.83417011  0.67291750  0.65932121    -0.17800
C1173       C  0.86446135  0.67798386  0.58521616    -0.16900
C1174       C  0.86792214  0.70946944  0.58562953     0.07100
C1175       C  0.86951714  0.74653554  0.58591751     0.09000
C1176       C  0.86873662  0.77821979  0.58596111    -0.17800
C1177       C  0.84484233  0.59416281  0.60664632    -0.16900
C1178       C  0.84421662  0.59464989  0.61530014     0.07100
C1179       C  0.84429478  0.59546881  0.62544247     0.09000
C1180       C  0.84492956  0.59568657  0.63409771    -0.17800
C1181       C  0.13095085  0.67596848  0.65999558    -0.16900
C1182       C  0.13478262  0.70759270  0.66004329     0.07100
C1183       C  0.13584443  0.74488895  0.65960623     0.09000
C1184       C  0.13391630  0.77654178  0.65885359    -0.17800
C1185       C  0.03081431  0.61131057  0.65723865    -0.16900
C1186       C  0.99919720  0.61302669  0.65674559     0.07100
C1187       C  0.96211597  0.61141299  0.65640078     0.09000
C1188       C  0.93063196  0.60754915  0.65627125    -0.17800
C1189       C  0.09848062  0.67238007  0.58694096    -0.16900
C1190       C  0.09773085  0.70404948  0.58662397     0.07100
C1191       C  0.10029748  0.74099224  0.58591928     0.09000
C1192       C  0.10473279  0.77229376  0.58524240    -0.17800
C1193       C  0.92829668  0.57811883  0.58343570    -0.16900
C1194       C  0.96001566  0.57483878  0.58348381     0.07100
C1195       C  0.99742012  0.57430829  0.58391612     0.09000
C1196       C  0.02918765  0.57641492  0.58454222    -0.17800
C1197       C  0.11148614  0.58780036  0.60893752    -0.16900
C1198       C  0.11329896  0.58854356  0.61758607     0.07100
C1199       C  0.11527526  0.59039984  0.62771518     0.09000
C1200       C  0.11605314  0.59239656  0.63635891    -0.17800
C1201       C  0.15839451  0.92954679  0.67094163    -0.11700
C1202       C  0.14809890  0.90524611  0.66605474    -0.13200
C1203       C  0.17819185  0.23482032  0.68567184    -0.14800
C1204       C  0.17643769  0.21338523  0.69331559    -0.30000
H1205       H  0.17095870  0.22527850  0.67858195     0.14200
H1206       H  0.18073966  0.22445943  0.70041757     0.14800
C1207       C  0.14420457  0.52375575  0.67450878    -0.11700
C1208       C  0.13539891  0.54847578  0.66958371    -0.13200
C1209       C  0.81346371  0.51902580  0.67106699    -0.11700
C1210       C  0.82325701  0.54352113  0.66622436    -0.13200
C1211       C  0.78175125  0.21498654  0.68605238    -0.14800
C1212       C  0.77775727  0.23614090  0.69374639    -0.30000
H1213       H  0.79315388  0.22511269  0.67949163     0.14200
H1214       H  0.76851283  0.22462982  0.70038591     0.14800
C1215       C  0.81820691  0.92590923  0.67286436    -0.11700
C1216       C  0.82913681  0.90144036  0.66816506    -0.13200
C1217       C  0.81095345  0.88865759  0.57605449    -0.11700
C1218       C  0.78667184  0.89915792  0.57119123    -0.13200
C1219       C  0.48286500  0.92275347  0.55389014    -0.14800
C1220       C  0.50415912  0.94023312  0.54782737    -0.30000
H1221       H  0.49322647  0.91146677  0.56046427     0.14200
H1222       H  0.49239757  0.95311799  0.54165852     0.14800
C1223       C  0.19376815  0.88718787  0.56868659    -0.11700
C1224       C  0.16915263  0.87755744  0.57353118    -0.13200
C1225       C  0.77694201  0.56441237  0.56792656    -0.11700
C1226       C  0.80086077  0.57262582  0.57329402    -0.13200
C1227       C  0.47136708  0.55032886  0.55473163    -0.14800
C1228       C  0.49115489  0.55394706  0.54680080    -0.30000
H1229       H  0.48226278  0.55632649  0.56176197     0.14200
H1230       H  0.47860395  0.55052874  0.53984285     0.14800
C1231       C  0.15739793  0.56375854  0.57621531    -0.11700
C1232       C  0.18211816  0.55445277  0.57138415    -0.13200
C1233       C  0.35286159  0.59699157  0.85833883    -0.16900
C1234       C  0.35363749  0.59679607  0.86700691     0.07100
C1235       C  0.35596335  0.59713276  0.87715650     0.09000
C1236       C  0.35809782  0.59807590  0.88580739    -0.17800
C1237       C  0.44194665  0.60474372  0.83857912    -0.16900
C1238       C  0.47349062  0.60616344  0.83946989     0.07100
C1239       C  0.51060356  0.60620262  0.83993845     0.09000
C1240       C  0.54226377  0.60471151  0.83967481    -0.17800
C1241       C  0.54273500  0.58910485  0.90992667    -0.16900
C1242       C  0.51084049  0.58763989  0.91016716     0.07100
C1243       C  0.47333452  0.58781856  0.91018980     0.09000
C1244       C  0.44147299  0.58988009  0.90989800    -0.17800
C1245       C  0.62973299  0.59429362  0.88681274    -0.16900
C1246       C  0.63233688  0.59393635  0.87817528     0.07100
C1247       C  0.63429248  0.59445803  0.86802651     0.09000
C1248       C  0.63411997  0.59538341  0.85935998    -0.17800
C1249       C  0.61534482  0.78198404  0.90782002    -0.16900
C1250       C  0.61369844  0.75031083  0.90786946     0.07100
C1251       C  0.61406703  0.71318157  0.90799308     0.09000
C1252       C  0.61598807  0.68153870  0.90818074    -0.17800
C1253       C  0.63545723  0.77794218  0.83348668    -0.16900
C1254       C  0.63703420  0.74606537  0.83338416     0.07100
C1255       C  0.63659958  0.70863198  0.83384871     0.09000
C1256       C  0.63460582  0.67689169  0.83460435    -0.17800
C1257       C  0.62963514  0.86353913  0.88526244    -0.16900
C1258       C  0.63124175  0.86229103  0.87662047     0.07100
C1259       C  0.63225944  0.86065479  0.86648423     0.09000
C1260       C  0.63180496  0.85946907  0.85783018    -0.17800
C1261       C  0.34833516  0.77868867  0.83312261    -0.16900
C1262       C  0.34684988  0.74670610  0.83276502     0.07100
C1263       C  0.34708412  0.70905189  0.83284416     0.09000
C1264       C  0.34890535  0.67713472  0.83335394    -0.17800
C1265       C  0.54210917  0.85021138  0.83734243    -0.16900
C1266       C  0.51046794  0.84894880  0.83770457     0.07100
C1267       C  0.47336068  0.84919031  0.83762018     0.09000
C1268       C  0.44174957  0.85080392  0.83712505    -0.17800
C1269       C  0.37411598  0.78584216  0.90722414    -0.16900
C1270       C  0.37581804  0.75419648  0.90718003     0.07100
C1271       C  0.37544949  0.71708649  0.90714907     0.09000
C1272       C  0.37304740  0.68547338  0.90722333    -0.17800
C1273       C  0.44449748  0.88065993  0.90881618    -0.16900
C1274       C  0.47639821  0.88193148  0.90909834     0.07100
C1275       C  0.51386932  0.88090818  0.90904920     0.09000
C1276       C  0.54564720  0.87813428  0.90874605    -0.17800
C1277       C  0.35951110  0.86882586  0.88497873    -0.16900
C1278       C  0.35725920  0.86739550  0.87631507     0.07100
C1279       C  0.35494895  0.86502682  0.86615191     0.09000
C1280       C  0.35401553  0.86285362  0.85748333    -0.17800
C1281       C  0.71857279  0.41115997  0.74868466    -0.14800
C1282       C  0.73050263  0.43812018  0.74337563    -0.30000
H1283       H  0.71889189  0.38479794  0.74567259     0.14200
H1284       H  0.72858608  0.46496644  0.74600669     0.14800
C1285       C  0.65713244  0.52506080  0.82081407    -0.11700
C1286       C  0.64838569  0.54895910  0.82606440    -0.13200
C1287       C  0.71519689  0.01696995  0.74590336    -0.14800
C1288       C  0.71121143  0.04370003  0.73967746    -0.30000
H1289       H  0.72135622  0.99072954  0.74333118     0.14200
H1290       H  0.70350691  0.06940775  0.74232576     0.14800
C1291       C  0.66140932  0.23704288  0.80305164    -0.14800
C1292       C  0.66514446  0.21454901  0.79564789    -0.30000
H1293       H  0.66241633  0.22742356  0.81037192     0.14200
H1294       H  0.66585764  0.22495220  0.78842762     0.14800
C1295       C  0.65883593  0.93029632  0.81978346    -0.11700
C1296       C  0.64996950  0.90607004  0.82486776    -0.13200
C1297       C  0.20367122  0.00876817  0.74979331    -0.14800
C1298       C  0.18394249  0.03230135  0.74499367    -0.30000
H1299       H  0.21300745  0.98518671  0.74621173     0.14200
H1300       H  0.17417190  0.05530720  0.74874855     0.14800
C1301       C  0.32510886  0.93092117  0.81889084    -0.11700
C1302       C  0.33442976  0.90704586  0.82411441    -0.13200
C1303       C  0.25248567  0.43009410  0.74765415    -0.14800
C1304       C  0.25547918  0.40426465  0.74109113    -0.30000
H1305       H  0.24237472  0.45569792  0.74558315     0.14200
H1306       H  0.26666583  0.37921817  0.74323034     0.14800
C1307       C  0.29464680  0.23498714  0.80228266    -0.14800
C1308       C  0.27827795  0.21345688  0.79597030    -0.30000
H1309       H  0.30577423  0.22456674  0.80887119     0.14200
H1310       H  0.26558098  0.22499621  0.78974341     0.14800
C1311       C  0.32471184  0.52316245  0.82046278    -0.11700
C1312       C  0.33440853  0.54771905  0.82544064    -0.13200
C1313       C  0.29311171  0.90266827  0.92343203    -0.11700
C1314       C  0.31715048  0.89511063  0.91812662    -0.13200
C1315       C  0.98705814  0.92923837  0.93535061    -0.14800
C1316       C  0.00749581  0.92809336  0.94325870    -0.30000
H1317       H  0.99672119  0.91925378  0.92855852     0.14200
H1318       H  0.99599019  0.93519357  0.95010706     0.14800
C1319       C  0.69758406  0.90383281  0.92282547    -0.11700
C1320       C  0.67312017  0.89282579  0.91806656    -0.13200
C1321       C  0.31314282  0.57847442  0.91885509    -0.11700
C1322       C  0.28816379  0.57044963  0.92378488    -0.13200
C1323       C  0.97644308  0.56289914  0.94889918    -0.14800
C1324       C  0.99788006  0.56546982  0.94125210    -0.30000
H1325       H  0.98798278  0.56375209  0.95601295     0.14200
H1326       H  0.98726239  0.56325033  0.93403121     0.14800
C1327       C  0.66836509  0.57112350  0.92039732    -0.11700
C1328       C  0.69138918  0.56082353  0.92573253    -0.13200
C1329       C  0.63080283  0.09633710  0.10722246    -0.16900
C1330       C  0.63151027  0.09640879  0.11589582     0.07100
C1331       C  0.63144850  0.09701118  0.12606748     0.09000
C1332       C  0.63059880  0.09749455  0.13473663    -0.17800
C1333       C  0.64105410  0.17740380  0.15954570    -0.16900
C1334       C  0.64289376  0.20915616  0.16024593     0.07100
C1335       C  0.64210042  0.24656335  0.16060704     0.09000
C1336       C  0.63904940  0.27830396  0.16044791    -0.17800
C1337       C  0.61618244  0.18177242  0.08550758    -0.16900
C1338       C  0.61347785  0.21334657  0.08557200     0.07100
C1339       C  0.61228230  0.25043107  0.08549410     0.09000
C1340       C  0.61300706  0.28211978  0.08543304    -0.17800
C1341       C  0.62108928  0.36128778  0.10861101    -0.16900
C1342       C  0.62159425  0.35933658  0.11724478     0.07100
C1343       C  0.62256598  0.35746586  0.12736527     0.09000
C1344       C  0.62347093  0.35672695  0.13601261    -0.17800
C1345       C  0.54462366  0.11154168  0.15691615    -0.16900
C1346       C  0.51317070  0.11530722  0.15733002     0.07100
C1347       C  0.47613738  0.11712281  0.15794557     0.09000
C1348       C  0.44445920  0.11632252  0.15837292    -0.17800
C1349       C  0.44565271  0.08691749  0.08413740    -0.16900
C1350       C  0.47747450  0.08464185  0.08360618     0.07100
C1351       C  0.51501283  0.08425133  0.08331560     0.09000
C1352       C  0.54694117  0.08608214  0.08342587    -0.17800
C1353       C  0.36510219  0.10066142  0.10851701    -0.16900
C1354       C  0.36413337  0.10222477  0.11716289     0.07100
C1355       C  0.36286561  0.10409240  0.12729458     0.09000
C1356       C  0.36201915  0.10533032  0.13594558    -0.17800
C1357       C  0.54092615  0.37791402  0.08450303    -0.16900
C1358       C  0.50900070  0.37995152  0.08444044     0.07100
C1359       C  0.47143332  0.37971799  0.08474382     0.09000
C1360       C  0.43956324  0.37751777  0.08519829    -0.17800
C1361       C  0.37312215  0.18198834  0.08607405    -0.16900
C1362       C  0.37355282  0.21369484  0.08641490     0.07100
C1363       C  0.37211166  0.25079976  0.08683174     0.09000
C1364       C  0.36941262  0.28240272  0.08704024    -0.17800
C1365       C  0.44156345  0.35501794  0.15834224    -0.16900
C1366       C  0.47300484  0.35100926  0.15826001     0.07100
C1367       C  0.51002434  0.34828767  0.15830703     0.09000
C1368       C  0.54173296  0.34837873  0.15844201    -0.17800
C1369       C  0.34772499  0.18653165  0.16006106    -0.16900
C1370       C  0.34477032  0.21824589  0.16047547     0.07100
C1371       C  0.34388976  0.25565577  0.16062270     0.09000
C1372       C  0.34559427  0.28749136  0.16040161    -0.17800
C1373       C  0.35681239  0.36895785  0.10904939    -0.16900
C1374       C  0.35601173  0.37002982  0.11771153     0.07100
C1375       C  0.35543436  0.37052224  0.12787397     0.09000
C1376       C  0.35560142  0.37021130  0.13654232    -0.17800
C1377       C  0.21166039  0.93937329  0.00250081    -0.14800
C1378       C  0.18615218  0.92255919  0.99755203    -0.30000
H1379       H  0.23615488  0.94657780  0.99903426     0.14200
H1380       H  0.16206563  0.91515406  0.00116620     0.14800
C1381       C  0.29234421  0.05801869  0.07163815    -0.11700
C1382       C  0.31672527  0.06974576  0.07632688    -0.13200
C1383       C  0.81981688  0.02067908  0.98850501    -0.14800
C1384       C  0.79350495  0.01815731  0.99488828    -0.30000
H1385       H  0.84538407  0.03020445  0.99087963     0.14200
H1386       H  0.76745299  0.00980017  0.99256672     0.14800
C1387       C  0.98623289  0.03498231  0.05256741    -0.14800
C1388       C  0.00924052  0.02147895  0.04622075    -0.30000
H1389       H  0.99486862  0.04139622  0.05979734     0.14200
H1390       H  0.99931685  0.01322705  0.03925656     0.14800
C1391       C  0.67472105  0.07356406  0.07403890    -0.11700
C1392       C  0.69864144  0.06464253  0.06882438    -0.13200
C1393       C  0.17728704  0.53349000  0.99656922    -0.14800
C1394       C  0.20115836  0.51359567  0.00122612    -0.30000
H1395       H  0.15497380  0.54388307  0.00046622     0.14200
H1396       H  0.22358800  0.50301662  0.99739520     0.14800
C1397       C  0.28789195  0.40208084  0.07087092    -0.11700
C1398       C  0.31170079  0.39174723  0.07597103    -0.13200
C1399       C  0.80628826  0.52233908  0.00664849    -0.14800
C1400       C  0.78080271  0.51436211  0.00026216    -0.30000
H1401       H  0.82998036  0.53561283  0.00425636     0.14200
H1402       H  0.75641910  0.50222459  0.00259666     0.14800
C1403       C  0.98500354  0.46042353  0.05935620    -0.14800
C1404       C  0.00704815  0.47782185  0.05345753    -0.30000
H1405       H  0.99533633  0.44142181  0.06443508     0.14200
H1406       H  0.99617938  0.49637672  0.04836950     0.14800
C1407       C  0.67035242  0.39474149  0.07692889    -0.11700
C1408       C  0.69575297  0.40606641  0.07266388    -0.13200
C1409       C  0.32499878  0.43918167  0.17480257    -0.11700
C1410       C  0.33396873  0.41510527  0.16965793    -0.13200
C1411       C  0.29869034  0.74490071  0.18622083    -0.14800
C1412       C  0.29984811  0.72510247  0.19421030    -0.30000
H1413       H  0.30854978  0.73465520  0.17948007     0.14200
H1414       H  0.29280652  0.73710899  0.20100805     0.14800
C1415       C  0.32185845  0.03398416  0.17290763    -0.11700
C1416       C  0.33343855  0.05841971  0.16830801    -0.13200
C1417       C  0.65234272  0.40771378  0.16803758    -0.11700
C1418       C  0.66222956  0.43283676  0.17272968    -0.13200
C1419       C  0.71760185  0.74324209  0.19392401    -0.14800
C1420       C  0.69760311  0.72136645  0.18856311    -0.30000
H1421       H  0.73394373  0.73200930  0.19954242     0.14200
H1422       H  0.68235096  0.73134943  0.18255843     0.14800
C1423       C  0.66112349  0.02456938  0.17251434    -0.11700
C1424       C  0.65174416  0.04867795  0.16744092    -0.13200
C1425       C  0.28574961  0.52130060  0.25324270    -0.14800
C1426       C  0.30030490  0.54817400  0.24838784    -0.30000
H1427       H  0.28285389  0.49564423  0.24989084     0.14200
H1428       H  0.30421184  0.57327107  0.25196878     0.14800
C1429       C  0.21776797  0.93735247  0.24594019    -0.14800
C1430       C  0.21603966  0.91088140  0.23952773    -0.30000
H1431       H  0.22328062  0.96402141  0.24359423     0.14200
H1432       H  0.20902154  0.88467355  0.24195150     0.14800
C1433       C  0.20012011  0.73535500  0.29715659    -0.14800
C1434       C  0.19901027  0.71333042  0.30471068    -0.30000
H1435       H  0.20371344  0.72419891  0.29006958     0.14200
H1436       H  0.19422983  0.72339706  0.31187507     0.14800
C1437       C  0.86977488  0.09256151  0.38599576    -0.16900
C1438       C  0.86850292  0.09218673  0.37733041     0.07100
C1439       C  0.86662153  0.09296533  0.36717635     0.09000
C1440       C  0.86527328  0.09417844  0.35851866    -0.17800
C1441       C  0.88589394  0.18077315  0.40671386    -0.16900
C1442       C  0.88909844  0.21228475  0.40635948     0.07100
C1443       C  0.88975462  0.24938498  0.40623340     0.09000
C1444       C  0.88785289  0.28101999  0.40634769    -0.17800
C1445       C  0.85152132  0.17715615  0.33461129    -0.16900
C1446       C  0.84969794  0.20897193  0.33423347     0.07100
C1447       C  0.85104075  0.24640067  0.33408969     0.09000
C1448       C  0.85493327  0.27808639  0.33419088    -0.17800
C1449       C  0.87111268  0.36345606  0.35735069    -0.16900
C1450       C  0.87246459  0.36539726  0.36601239     0.07100
C1451       C  0.87474791  0.36692549  0.37617478     0.09000
C1452       C  0.87658017  0.36730717  0.38484472    -0.17800
C1453       C  0.15529600  0.04421753  0.32565622    -0.11700
C1454       C  0.16405079  0.01995552  0.32052980    -0.13200
C1455       C  0.94826102  0.10856058  0.33662075    -0.16900
C1456       C  0.97995138  0.11016502  0.33681802     0.07100
C1457       C  0.01710196  0.10934203  0.33687579     0.09000
C1458       C  0.04868785  0.10643653  0.33676314    -0.17800
C1459       C  0.05095737  0.08043859  0.41035730    -0.16900
C1460       C  0.01917910  0.07891150  0.41092248     0.07100
C1461       C  0.98178061  0.07966012  0.41112678     0.09000
C1462       C  0.95006386  0.08270229  0.41077899    -0.17800
C1463       C  0.13278265  0.08920137  0.38602166    -0.16900
C1464       C  0.13375466  0.08970916  0.37735845     0.07100
C1465       C  0.13448103  0.09073488  0.36720019     0.09000
C1466       C  0.13436637  0.09161891  0.35853423    -0.17800
C1467       C  0.17836202  0.42564791  0.32231765    -0.11700
C1468       C  0.16665203  0.40178747  0.32712108    -0.13200
C1469       C  0.14932589  0.27386676  0.33518702    -0.16900
C1470       C  0.15074504  0.24205924  0.33454770     0.07100
C1471       C  0.14984188  0.20460661  0.33422973     0.09000
C1472       C  0.14676877  0.17283338  0.33440676    -0.17800
C1473       C  0.95461019  0.34504564  0.33595802    -0.16900
C1474       C  0.98628684  0.34296616  0.33656613     0.07100
C1475       C  0.02353566  0.34298350  0.33713847     0.09000
C1476       C  0.05528452  0.34492130  0.33740810    -0.17800
C1477       C  0.12376874  0.17403282  0.40794106    -0.16900
C1478       C  0.12350944  0.20571447  0.40798580     0.07100
C1479       C  0.12550565  0.24273806  0.40832074     0.09000
C1480       C  0.12863756  0.27424591  0.40873405    -0.17800
C1481       C  0.95846556  0.37399531  0.40979699    -0.16900
C1482       C  0.99024831  0.37461505  0.41061571     0.07100
C1483       C  0.02762645  0.37312899  0.41113457     0.09000
C1484       C  0.05938212  0.37014340  0.41111709    -0.17800
C1485       C  0.14083688  0.35549101  0.35973635    -0.16900
C1486       C  0.14127274  0.35702040  0.36840088     0.07100
C1487       C  0.14140120  0.35883048  0.37856095     0.09000
C1488       C  0.14115556  0.35960270  0.38723055    -0.17800
C1489       C  0.32295688  0.94595575  0.49043052    -0.14800
C1490       C  0.29536671  0.94762437  0.49642423    -0.30000
H1491       H  0.34839304  0.93761643  0.49314572     0.14200
H1492       H  0.26960429  0.95531907  0.49376993     0.14800
C1493       C  0.17849646  0.06338553  0.41884497    -0.11700
C1494       C  0.20279344  0.05315283  0.42374382    -0.13200
C1495       C  0.68737863  0.04068708  0.49781331    -0.14800
C1496       C  0.71056083  0.02066967  0.50264071    -0.30000
H1497       H  0.66398856  0.04992445  0.50145761     0.14200
H1498       H  0.73467074  0.01205470  0.49922876     0.14800
C1499       C  0.51216484  0.05903638  0.44583165    -0.14800
C1500       C  0.49135387  0.05478481  0.43807830    -0.30000
H1501       H  0.50130964  0.05352563  0.45286378     0.14200
H1502       H  0.50034209  0.06279753  0.43103453     0.14800
C1503       C  0.79638181  0.07063223  0.42409571    -0.11700
C1504       C  0.82107091  0.07748186  0.41893797    -0.13200
C1505       C  0.69438295  0.50881463  0.48943676    -0.14800
C1506       C  0.66731852  0.52350821  0.49415754    -0.30000
H1507       H  0.71984178  0.50627119  0.49293517     0.14200
H1508       H  0.64224900  0.52675970  0.49051116     0.14800
C1509       C  0.80538571  0.40063365  0.42233373    -0.11700
C1510       C  0.83011746  0.39018263  0.41764690    -0.13200
C1511       C  0.31511014  0.43007985  0.49934566    -0.14800
C1512       C  0.28809731  0.44615454  0.50373804    -0.30000
H1513       H  0.33936597  0.42548660  0.50329133     0.14200
H1514       H  0.26319760  0.44970412  0.50000771     0.14800
C1515       C  0.49649887  0.40176306  0.44624094    -0.14800
C1516       C  0.51551363  0.40478313  0.43814579    -0.30000
H1517       H  0.50951596  0.40655997  0.45307724     0.14200
H1518       H  0.50424831  0.39752156  0.43124640     0.14800
C1519       C  0.18711816  0.38313027  0.42030595    -0.11700
C1520       C  0.21100620  0.39273112  0.42550002    -0.13200
C1521       C  0.73043127  0.55500963  0.25163535    -0.14800
C1522       C  0.72891751  0.52838331  0.24527322    -0.30000
H1523       H  0.72367653  0.58135817  0.24929438     0.14200
H1524       H  0.73439250  0.50165392  0.24755577     0.14800
C1525       C  0.83562844  0.42882102  0.31896908    -0.11700
C1526       C  0.84660523  0.40490652  0.32394409    -0.13200
C1527       C  0.79834747  0.91873254  0.24636725    -0.14800
C1528       C  0.77927331  0.94299333  0.24162092    -0.30000
H1529       H  0.80746726  0.89558650  0.24256413     0.14200
H1530       H  0.77023610  0.96643334  0.24532437     0.14800
C1531       C  0.81944436  0.74025977  0.29899272    -0.14800
C1532       C  0.81678556  0.71916379  0.30671540    -0.30000
H1533       H  0.81454068  0.72901923  0.29194412     0.14200
H1534       H  0.82428531  0.72870652  0.31378236     0.14800
C1535       C  0.82977448  0.02541522  0.32036534    -0.11700
C1536       C  0.83920743  0.04941623  0.32552639    -0.13200
loop_ 
_geom_bond_atom_site_label_1 
_geom_bond_atom_site_label_2 
_geom_bond_distance 
_geom_bond_site_symmetry_2 
_ccdc_geom_bond_type 
N1            N2   1.321       .  A
N1            C5   1.357       .  A
N1           Cu9   2.101       .  S
N2            C3   1.339       .  A
N2           Cu8   2.065       .  S
C3            C4   1.379       .  A
C3            H6   1.082       .  S
C4            C5   1.394       .  A
C4         C1531   1.481       .  S
C5            H7   1.082       .  S
Cu8          N11   2.066       .  S
Cu9          N19   2.104       .  S
Cu10         N12   2.092       .  S
Cu10         N18   2.096       .  S
N11          N12   1.320       .  A
N11          C15   1.341       .  A
N12          C13   1.354       .  A
C13          C14   1.392       .  A
C13          H16   1.081       .  S
C14          C15   1.380       .  A
C14        C1527   1.482       .  S
C15          H17   1.083       .  S
N18          N19   1.328       .  A
N18          C22   1.348       .  A
N19          C20   1.349       .  A
C20          C21   1.383       .  A
C20          H23   1.082       .  S
C21          C22   1.381       .  A
C21        C1535   1.448   1_565  S
C22          H24   1.082   1_565  S
N25          N26   1.320       .  A
N25          C29   1.356       .  A
N25         Cu33   2.110       .  S
N26          C27   1.339       .  A
N26         Cu32   2.052       .  S
C27          C28   1.383       .  A
C27          H30   1.082       .  S
C28          C29   1.395       .  A
C28        C1532   1.493       .  S
C29          H31   1.082       .  S
Cu32         N35   2.052       .  S
Cu33         N43   2.113       .  S
Cu34         N36   2.110       .  S
Cu34         N42   2.114       .  S
N35          N36   1.321       .  A
N35          C39   1.339       .  A
N36          C37   1.356       .  A
C37          C38   1.395       .  A
C37          H40   1.081       .  S
C38          C39   1.377       .  A
C38        C1521   1.481       .  S
C39          H41   1.082       .  S
N42          N43   1.329       .  A
N42          C46   1.352       .  A
N43          C44   1.350       .  A
C44          C45   1.384       .  A
C44          H47   1.082       .  S
C45          C46   1.386       .  A
C45        C1525   1.457       .  S
C46          H48   1.082       .  S
N49          N50   1.322       .  A
N49          C53   1.355       .  A
N49         Cu57   2.102       .  S
N50          C51   1.340       .  A
N50         Cu56   2.066       .  S
C51          C52   1.380       .  A
C51          H54   1.082       .  S
C52          C53   1.392       .  A
C52        C1515   1.481       .  S
C53          H55   1.082       .  S
Cu56         N59   2.065       .  S
Cu57         N67   2.104       .  S
Cu58         N60   2.086       .  S
Cu58         N66   2.089       .  S
N59          N60   1.321       .  A
N59          C63   1.341       .  A
N60          C61   1.351       .  A
C61          C62   1.390       .  A
C61          H64   1.081       .  S
C62          C63   1.380       .  A
C62        C1511   1.477       .  S
C63          H65   1.082       .  S
N66          N67   1.327       .  A
N66          C70   1.348       .  A
N67          C68   1.349       .  A
C68          C69   1.384       .  A
C68          H71   1.082       .  S
C69          C70   1.381       .  A
C69        C1520   1.448       .  S
C70          H72   1.082       .  S
N73          N74   1.322       .  A
N73          C77   1.357       .  A
N73         Cu81   2.114       .  S
N74          C75   1.339       .  A
N74         Cu80   2.059       .  S
C75          C76   1.381       .  A
C75          H78   1.082       .  S
C76          C77   1.395       .  A
C76        C1516   1.491       .  S
C77          H79   1.082       .  S
Cu80         N83   2.061       .  S
Cu81         N91   2.116       .  S
Cu82         N84   2.089       .  S
Cu82         N90   2.092       .  S
N83          N84   1.319       .  A
N83          C87   1.343       .  A
N84          C85   1.350       .  A
C85          C86   1.389       .  A
C85          H88   1.082       .  S
C86          C87   1.387       .  A
C86        C1505   1.487       .  S
C87          H89   1.081       .  S
N90          N91   1.328       .  A
N90          C94   1.349       .  A
N91          C92   1.351       .  A
C92          C93   1.386       .  A
C92          H95   1.082       .  S
C93          C94   1.381       .  A
C93        C1509   1.452       .  S
C94          H96   1.082       .  S
N97          N98   1.321       .  A
N97         C101   1.355       .  A
N97        Cu105   2.102       .  S
N98          C99   1.338       .  A
N98        Cu104   2.055       .  S
C99         C100   1.377       .  A
C99         H102   1.083       .  S
C100        C101   1.394       .  A
C100       C1499   1.479       .  S
C101        H103   1.082       .  S
Cu104       N107   2.055       .  S
Cu105       N115   2.106       .  S
Cu106       N108   2.095       .  S
Cu106       N114   2.099       .  S
N107        N108   1.320       .  A
N107        C111   1.339       .  A
N108        C109   1.354       .  A
C109        C110   1.393       .  A
C109        H112   1.082       .  S
C110        C111   1.377       .  A
C110       C1495   1.479       .  S
C111        H113   1.082       .  S
N114        N115   1.328       .  A
N114        C118   1.348       .  A
N115        C116   1.350       .  A
C116        C117   1.384       .  A
C116        H119   1.082       .  S
C117        C118   1.381       .  A
C117       C1503   1.449       .  S
C118        H120   1.082       .  S
N121        N122   1.321       .  A
N121        C125   1.353       .  A
N121       Cu129   2.096       .  S
N122        C123   1.341       .  A
N122       Cu128   2.065   1_545  S
C123        C124   1.385       .  A
C123        H126   1.082       .  S
C124        C125   1.390       .  A
C124       C1500   1.487       .  S
C125        H127   1.082       .  S
Cu128       N131   2.065       .  S
Cu129       N139   2.098       .  S
Cu130       N132   2.085   1_545  S
Cu130       N138   2.087       .  S
N131        N132   1.321       .  A
N131        C135   1.341       .  A
N132        C133   1.351       .  A
C133        C134   1.389       .  A
C133        H136   1.081       .  S
C134        C135   1.379       .  A
C134       C1489   1.477       .  S
C135        H137   1.082       .  S
N138        N139   1.327       .  A
N138        C142   1.348       .  A
N139        C140   1.348       .  A
C140        C141   1.382       .  A
C140        H143   1.082       .  S
C141        C142   1.380       .  A
C141       C1494   1.445       .  S
C142        H144   1.082       .  S
C145        C146   1.539       .  S
C145        C151   1.535       .  S
C145        C149   1.542       .  S
C145       C1519   1.480       .  S
C146        H153   1.086       .  S
C146        C147   1.367       .  D
C147        C148   1.536       .  S
C147       C1488   1.447       .  S
C148        C152   1.532       .  S
C148        C150   1.537       .  S
C148        H154   1.112       .  S
C149        H155   1.086       .  S
C149        C150   1.370       .  D
C150       C1484   1.452       .  S
C151        H156   1.087       .  S
C151        C152   1.362       .  D
C152       C1480   1.439       .  S
C157        C158   1.536       .  S
C157        C163   1.536       .  S
C157        C161   1.542       .  S
C157       C1468   1.481       .  S
C158        H165   1.087       .  S
C158        C159   1.365       .  D
C159        C160   1.540       .  S
C159       C1485   1.448       .  S
C160        C164   1.537       .  S
C160        C162   1.540       .  S
C160        H166   1.112       .  S
C161        H167   1.086       .  S
C161        C162   1.370       .  D
C162       C1469   1.454       .  S
C163        H168   1.087       .  S
C163        C164   1.364       .  D
C164       C1476   1.446       .  S
C169        C170   1.532       .  S
C169        C175   1.537       .  S
C169        C173   1.540       .  S
C169       C1493   1.476       .  S
C170        H177   1.087       .  S
C170        C171   1.361       .  D
C171        C172   1.534       .  S
C171       C1477   1.438       .  S
C172        C176   1.538       .  S
C172        C174   1.540       .  S
C172        H178   1.112       .  S
C173        H179   1.086       .  S
C173        C174   1.369       .  D
C174       C1459   1.451       .  S
C175        H180   1.086       .  S
C175        C176   1.366       .  D
C176       C1463   1.447       .  S
C181        C182   1.534       .  S
C181        C187   1.537       .  S
C181        C185   1.544       .  S
C181       C1453   1.481       .  S
C182        H189   1.087       .  S
C182        C183   1.362       .  D
C183        C184   1.534       .  S
C183       C1458   1.441       .  S
C184        C188   1.537       .  S
C184        C186   1.538       .  S
C184        H190   1.112       .  S
C185        H191   1.086       .  S
C185        C186   1.371       .  D
C186       C1472   1.453       .  S
C187        H192   1.086       .  S
C187        C188   1.366       .  D
C188       C1466   1.447       .  S
C193        C194   1.538       .  S
C193        C199   1.540       .  S
C193        C197   1.542       .  S
C193       C1526   1.488       .  S
C194        H201   1.087       .  S
C194        C195   1.365       .  D
C195        C196   1.536       .  S
C195       C1473   1.447       .  S
C196        C200   1.537       .  S
C196        C198   1.540       .  S
C196        H202   1.112       .  S
C197        H203   1.086       .  S
C197        C198   1.370       .  D
C198       C1448   1.453       .  S
C199        H204   1.086       .  S
C199        C200   1.367       .  D
C200       C1449   1.450       .  S
C205        C206   1.535       .  S
C205        C211   1.538       .  S
C205        C209   1.543       .  S
C205       C1510   1.483       .  S
C206        H213   1.087       .  S
C206        C207   1.363       .  D
C207        C208   1.533       .  S
C207       C1444   1.440       .  S
C208        C212   1.539       .  S
C208        C210   1.538       .  S
C208        H214   1.112       .  S
C209        H215   1.086       .  S
C209        C210   1.371       .  D
C210       C1481   1.452       .  S
C211        H216   1.086       .  S
C211        C212   1.366       .  D
C212       C1452   1.450       .  S
C217        C218   1.538       .  S
C217        C223   1.533       .  S
C217        C221   1.543       .  S
C217       C1504   1.480       .  S
C218        H225   1.086       .  S
C218        C219   1.367       .  D
C219        C220   1.537       .  S
C219       C1437   1.447       .  S
C220        C224   1.533       .  S
C220        C222   1.537       .  S
C220        H226   1.112       .  S
C221        H227   1.086       .  S
C221        C222   1.371       .  D
C222       C1462   1.451       .  S
C223        H228   1.087       .  S
C223        C224   1.361       .  D
C224       C1441   1.439       .  S
C229        C230   1.538       .  S
C229        C235   1.534       .  S
C229        C233   1.542       .  S
C229       C1536   1.479       .  S
C230        H237   1.086       .  S
C230        C231   1.366       .  D
C231        C232   1.537       .  S
C231       C1440   1.447       .  S
C232        C236   1.534       .  S
C232        C234   1.539       .  S
C232        H238   1.112       .  S
C233        H239   1.086       .  S
C233        C234   1.370       .  D
C234       C1445   1.452       .  S
C235        H240   1.087       .  S
C235        C236   1.362       .  D
C236       C1455   1.441       .  S
N241        N242   1.321       .  A
N241        C245   1.361       .  A
N241       Cu249   2.119       .  S
N242        C243   1.334       .  A
N242       Cu248   2.048       .  S
C243        C244   1.374       .  A
C243        H246   1.082       .  S
C244        C245   1.398       .  A
C244       C1433   1.483       .  S
C245        H247   1.082       .  S
Cu248       N251   2.049       .  S
Cu249       N259   2.124       .  S
Cu250       N252   2.086       .  S
Cu250       N258   2.090       .  S
N251        N252   1.317       .  A
N251        C255   1.340       .  A
N252        C253   1.351       .  A
C253        C254   1.391       .  A
C253        H256   1.082       .  S
C254        C255   1.386       .  A
C254       C1429   1.486       .  S
C255        H257   1.081       .  S
N258        N259   1.330       .  A
N258        C262   1.346       .  A
N259        C260   1.353       .  A
C260        C261   1.387       .  A
C260        H263   1.082       .  S
C261        C262   1.377       .  A
C261       C1454   1.449   1_565  S
C262        H264   1.082   1_565  S
N265        N266   1.320       .  A
N265        C269   1.356       .  A
N265       Cu273   2.109       .  S
N266        C267   1.338       .  A
N266       Cu272   2.059       .  S
C267        C268   1.387       .  A
C267        H270   1.081       .  S
C268        C269   1.395       .  A
C268       C1434   1.497       .  S
C269        H271   1.082       .  S
Cu272       N275   2.059       .  S
Cu273       N283   2.112       .  S
Cu274       N276   2.090       .  S
Cu274       N282   2.093       .  S
N275        N276   1.319       .  A
N275        C279   1.341       .  A
N276        C277   1.351       .  A
C277        C278   1.390       .  A
C277        H280   1.082       .  S
C278        C279   1.385       .  A
C278       C1425   1.486       .  S
C279        H281   1.081       .  S
N282        N283   1.328       .  A
N282        C286   1.348       .  A
N283        C284   1.351       .  A
C284        C285   1.385       .  A
C284        H287   1.082       .  S
C285        C286   1.380       .  A
C285       C1467   1.450       .  S
C286        H288   1.082       .  S
N289        N290   1.322       .  A
N289        C293   1.358       .  A
N289       Cu297   2.109       .  S
N290        C291   1.338       .  A
N290       Cu296   2.061       .  S
C291        C292   1.377       .  A
C291        H294   1.082       .  S
C292        C293   1.395       .  A
C292       C1419   1.482       .  S
C293        H295   1.082       .  S
Cu296       N299   2.062       .  S
Cu297       N307   2.112       .  S
Cu298       N300   2.085       .  S
Cu298       N306   2.088       .  S
N299        N300   1.318       .  A
N299        C303   1.342       .  A
N300        C301   1.351       .  A
C301        C302   1.391       .  A
C301        H304   1.082       .  S
C302        C303   1.388       .  A
C302       C1528   1.490       .  S
C303        H305   1.081       .  S
N306        N307   1.328       .  A
N306        C310   1.346   1_565  A
N307        C308   1.352       .  A
C308        C309   1.385       .  A
C308        H311   1.082       .  S
C309        C310   1.377   1_565  A
C309       C1423   1.447   1_565  S
C310        H312   1.082       .  S
N313        N314   1.322       .  A
N313        C317   1.355       .  A
N313       Cu321   2.111       .  S
N314        C315   1.341       .  A
N314       Cu320   2.066       .  S
C315        C316   1.385       .  A
C315        H318   1.082       .  S
C316        C317   1.392       .  A
C316       C1420   1.492       .  S
C317        H319   1.082       .  S
Cu320       N323   2.066       .  S
Cu321       N331   2.114       .  S
Cu322       N324   2.085       .  S
Cu322       N330   2.086       .  S
N323        N324   1.319       .  A
N323        C327   1.342       .  A
N324        C325   1.350       .  A
C325        C326   1.388       .  A
C325        H328   1.082       .  S
C326        C327   1.388       .  A
C326       C1522   1.488       .  S
C327        H329   1.081       .  S
N330        N331   1.327       .  A
N330        C334   1.346       .  A
N331        C332   1.352       .  A
C332        C333   1.387       .  A
C332        H335   1.082       .  S
C333        C334   1.378       .  A
C333       C1418   1.450       .  S
C334        H336   1.082       .  S
N337        N338   1.320       .  A
N337        C341   1.354       .  A
N337       Cu345   2.103       .  S
N338        C339   1.340       .  A
N338       Cu344   2.057       .  S
C339        C340   1.383       .  A
C339        H342   1.082       .  S
C340        C341   1.392       .  A
C340       C1411   1.489       .  S
C341        H343   1.082       .  S
Cu344       N347   2.058       .  S
Cu345       N355   2.106       .  S
Cu346       N348   2.093       .  S
Cu346       N354   2.096       .  S
N347        N348   1.321       .  A
N347        C351   1.339       .  A
N348        C349   1.353       .  A
C349        C350   1.392       .  A
C349        H352   1.081       .  S
C350        C351   1.378       .  A
C350       C1430   1.478       .  S
C351        H353   1.083       .  S
N354        N355   1.328       .  A
N354        C358   1.349   1_565  A
N355        C356   1.349       .  A
C356        C357   1.383   1_565  A
C356        H359   1.082       .  S
C357        C358   1.381       .  A
C357       C1415   1.449       .  S
C358        H360   1.082       .  S
N361        N362   1.321       .  A
N361        C365   1.356       .  A
N361       Cu369   2.102       .  S
N362        C363   1.339       .  A
N362       Cu368   2.060       .  S
C363        C364   1.378       .  A
C363        H366   1.082       .  S
C364        C365   1.393       .  A
C364       C1412   1.479       .  S
C365        H367   1.082       .  S
Cu368       N371   2.060       .  S
Cu369       N379   2.106       .  S
Cu370       N372   2.086       .  S
Cu370       N378   2.089       .  S
N371        N372   1.320       .  A
N371        C375   1.341       .  A
N372        C373   1.352       .  A
C373        C374   1.391       .  A
C373        H376   1.081       .  S
C374        C375   1.380       .  A
C374       C1426   1.478       .  S
C375        H377   1.082       .  S
N378        N379   1.328       .  A
N378        C382   1.347       .  A
N379        C380   1.350       .  A
C380        C381   1.384       .  A
C380        H383   1.082       .  S
C381        C382   1.379       .  A
C381       C1409   1.447       .  S
C382        H384   1.082       .  S
N385        N386   1.321       .  A
N385        C389   1.357       .  A
N385       Cu393   2.119       .  S
N386        C387   1.339       .  A
N386       Cu392   2.057       .  S
C387        C388   1.386       .  A
C387        H390   1.080       .  S
C388        C389   1.397       .  A
C388       C1403   1.498       .  S
C389        H391   1.082       .  S
Cu392       N395   2.058       .  S
Cu393       N403   2.123       .  S
Cu394       N396   2.076       .  S
Cu394       N402   2.080       .  S
N395        N396   1.319       .  A
N395        C399   1.340       .  A
N396        C397   1.349       .  A
C397        C398   1.388       .  A
C397        H400   1.081       .  S
C398        C399   1.379       .  A
C398       C1399   1.474       .  S
C399        H401   1.082       .  S
N402        N403   1.327       .  A
N402        C406   1.346       .  A
N403        C404   1.353       .  A
C404        C405   1.389       .  A
C404        H407   1.082       .  S
C405        C406   1.377       .  A
C405       C1408   1.451       .  S
C406        H408   1.082       .  S
N409        N410   1.322       .  A
N409        C413   1.358       .  A
N409       Cu417   2.110       .  S
N410        C411   1.338       .  A
N410       Cu416   2.061       .  S
C411        C412   1.378       .  A
C411        H414   1.082       .  S
C412        C413   1.395       .  A
C412       C1404   1.484       .  S
C413        H415   1.082       .  S
Cu416       N419   2.061       .  S
Cu417       N427   2.114       .  S
Cu418       N420   2.092       .  S
Cu418       N426   2.095       .  S
N419        N420   1.319       .  A
N419        C423   1.341       .  A
N420        C421   1.351       .  A
C421        C422   1.391       .  A
C421        H424   1.082       .  S
C422        C423   1.387       .  A
C422       C1394   1.490       .  S
C423        H425   1.081       .  S
N426        N427   1.329       .  A
N426        C430   1.348       .  A
N427        C428   1.352       .  A
C428        C429   1.386       .  A
C428        H431   1.082       .  S
C429        C430   1.379       .  A
C429       C1397   1.450       .  S
C430        H432   1.082       .  S
N433        N434   1.322       .  A
N433        C437   1.355       .  A
N433       Cu441   2.115       .  S
N434        C435   1.344       .  A
N434       Cu440   2.074       .  S
C435        C436   1.388       .  A
C435        H438   1.081       .  S
C436        C437   1.394       .  A
C436       C1387   1.499       .  S
C437        H439   1.082       .  S
Cu440       N443   2.073       .  S
Cu441       N451   2.117       .  S
Cu442       N444   2.089       .  S
Cu442       N450   2.092       .  S
N443        N444   1.321       .  A
N443        C447   1.342       .  A
N444        C445   1.351       .  A
C445        C446   1.388       .  A
C445        H448   1.082       .  S
C446        C447   1.387       .  A
C446       C1384   1.487   1_554  S
C447        H449   1.081       .  S
N450        N451   1.327       .  A
N450        C454   1.349       .  A
N451        C452   1.352       .  A
C452        C453   1.387       .  A
C452        H455   1.082       .  S
C453        C454   1.381       .  A
C453       C1392   1.453       .  S
C454        H456   1.082       .  S
N457        N458   1.321   1_545  A
N457        C461   1.361       .  A
N457       Cu465   2.129       .  S
N458        C459   1.338       .  A
N458       Cu464   2.055       .  S
C459        C460   1.377   1_565  A
C459        H462   1.082       .  S
C460        C461   1.400       .  A
C460       C1388   1.489       .  S
C461        H463   1.082       .  S
Cu464       N467   2.055       .  S
Cu465       N475   2.132       .  S
Cu466       N468   2.078       .  S
Cu466       N474   2.081   1_565  S
N467        N468   1.317       .  A
N467        C471   1.338       .  A
N468        C469   1.351       .  A
C469        C470   1.390       .  A
C469        H472   1.082       .  S
C470        C471   1.387       .  A
C470       C1377   1.487       .  S
C471        H473   1.080       .  S
N474        N475   1.329       .  A
N474        C478   1.345       .  A
N475        C476   1.354       .  A
C476        C477   1.389       .  A
C476        H479   1.082       .  S
C477        C478   1.375       .  A
C477       C1381   1.450       .  S
C478        H480   1.082       .  S
C481        C482   1.538       .  S
C481        C487   1.535       .  S
C481        C485   1.543       .  S
C481       C1410   1.478       .  S
C482        H489   1.086       .  S
C482        C483   1.366       .  D
C483        C484   1.536       .  S
C483       C1376   1.447       .  S
C484        C488   1.533       .  S
C484        C486   1.537       .  S
C484        H490   1.112       .  S
C485        H491   1.086       .  S
C485        C486   1.370       .  D
C486       C1372   1.451       .  S
C487        H492   1.087       .  S
C487        C488   1.362       .  D
C488       C1365   1.440       .  S
C493        C494   1.537       .  S
C493        C499   1.533       .  S
C493        C497   1.545       .  S
C493       C1398   1.482       .  S
C494        H501   1.087       .  S
C494        C495   1.366       .  D
C495        C496   1.539       .  S
C495       C1373   1.447       .  S
C496        C500   1.536       .  S
C496        C498   1.539       .  S
C496        H502   1.112       .  S
C497        H503   1.086       .  S
C497        C498   1.372       .  D
C498       C1360   1.457       .  S
C499        H504   1.087       .  S
C499        C500   1.362       .  D
C500       C1364   1.442       .  S
C505        C506   1.534       .  S
C505        C511   1.536       .  S
C505        C509   1.544       .  S
C505       C1382   1.481       .  S
C506        H513   1.087       .  S
C506        C507   1.362       .  D
C507        C508   1.535       .  S
C507       C1361   1.441       .  S
C508        C512   1.537       .  S
C508        C510   1.540       .  S
C508        H514   1.112       .  S
C509        H515   1.086       .  S
C509        C510   1.372       .  D
C510       C1349   1.457       .  S
C511        H516   1.087       .  S
C511        C512   1.365       .  D
C512       C1353   1.445       .  S
C517        C518   1.535       .  S
C517        C523   1.537       .  S
C517        C521   1.542       .  S
C517       C1416   1.480       .  S
C518        H525   1.087       .  S
C518        C519   1.363       .  D
C519        C520   1.535       .  S
C519       C1348   1.441       .  S
C520        C524   1.536       .  S
C520        C522   1.538       .  S
C520        H526   1.112       .  S
C521        H527   1.086       .  S
C521        C522   1.370       .  D
C522       C1369   1.452       .  S
C523        H528   1.087       .  S
C523        C524   1.365       .  D
C524       C1356   1.445       .  S
C529        C530   1.534       .  S
C529        C535   1.536       .  S
C529        C533   1.547       .  S
C529       C1407   1.483       .  S
C530        H537   1.087       .  S
C530        C531   1.362       .  D
C531        C532   1.533       .  S
C531       C1340   1.439       .  S
C532        C536   1.534       .  S
C532        C534   1.538       .  S
C532        H538   1.112       .  S
C533        H539   1.086       .  S
C533        C534   1.374       .  D
C534       C1357   1.457       .  S
C535        H540   1.087       .  S
C535        C536   1.364       .  D
C536       C1341   1.443       .  S
C541        C542   1.533       .  S
C541        C547   1.536       .  S
C541        C545   1.544       .  S
C541       C1417   1.480       .  S
C542        H549   1.087       .  S
C542        C543   1.361       .  D
C543        C544   1.534       .  S
C543       C1368   1.440       .  S
C544        C548   1.535       .  S
C544        C546   1.538       .  S
C544        H550   1.112       .  S
C545        H551   1.086       .  S
C545        C546   1.372       .  D
C546       C1336   1.452       .  S
C547        H552   1.086       .  S
C547        C548   1.365       .  D
C548       C1344   1.443       .  S
C553        C554   1.536       .  S
C553        C559   1.533       .  S
C553        C557   1.543       .  S
C553       C1424   1.478       .  S
C554        H561   1.086       .  S
C554        C555   1.366       .  D
C555        C556   1.539       .  S
C555       C1332   1.448       .  S
C556        C560   1.535       .  S
C556        C558   1.538       .  S
C556        H562   1.112       .  S
C557        H563   1.086       .  S
C557        C558   1.370       .  D
C558       C1333   1.452       .  S
C559        H564   1.087       .  S
C559        C560   1.361       .  D
C560       C1345   1.441       .  S
C565        C566   1.539       .  S
C565        C571   1.534       .  S
C565        C569   1.546       .  S
C565       C1391   1.484       .  S
C566        H573   1.086       .  S
C566        C567   1.367       .  D
C567        C568   1.537       .  S
C567       C1329   1.448       .  S
C568        C572   1.533       .  S
C568        C570   1.538       .  S
C568        H574   1.112       .  S
C569        H575   1.086       .  S
C569        C570   1.373       .  D
C570       C1352   1.456       .  S
C571        H576   1.087       .  S
C571        C572   1.361       .  D
C572       C1337   1.439       .  S
N577        N578   1.320       .  A
N577        C581   1.360       .  A
N577       Cu585   2.112       .  S
N578        C579   1.335       .  A
N578       Cu584   2.047       .  S
C579        C580   1.376       .  A
C579        H582   1.082       .  S
C580        C581   1.397       .  A
C580       C1323   1.482       .  S
C581        H583   1.082       .  S
Cu584       N587   2.046       .  S
Cu585       N595   2.116       .  S
Cu586       N588   2.084       .  S
Cu586       N594   2.089       .  S
N587        N588   1.318       .  A
N587        C591   1.338       .  A
N588        C589   1.351       .  A
C589        C590   1.390       .  A
C589        H592   1.082       .  S
C590        C591   1.383       .  A
C590       C1400   1.482   1_556  S
C591        H593   1.081       .  S
N594        N595   1.330       .  A
N594        C598   1.347       .  A
N595        C596   1.350       .  A
C596        C597   1.384       .  A
C596        H599   1.082       .  S
C597        C598   1.378       .  A
C597       C1328   1.446       .  S
C598        H600   1.082       .  S
N601        N602   1.320       .  A
N601        C605   1.357       .  A
N601       Cu609   2.110       .  S
N602        C603   1.338       .  A
N602       Cu608   2.060       .  S
C603        C604   1.387       .  A
C603        H606   1.080       .  S
C604        C605   1.396       .  A
C604       C1324   1.499   1_455  S
C605        H607   1.082       .  S
Cu608       N611   2.062       .  S
Cu609       N619   2.114       .  S
Cu610       N612   2.090       .  S
Cu610       N618   2.093       .  S
N611        N612   1.319       .  A
N611        C615   1.341       .  A
N612        C613   1.353       .  A
C613        C614   1.392       .  A
C613        H616   1.081       .  S
C614        C615   1.380       .  A
C614       C1393   1.481       .  S
C615        H617   1.082       .  S
N618        N619   1.328       .  A
N618        C622   1.348       .  A
N619        C620   1.351       .  A
C620        C621   1.386       .  A
C620        H623   1.082       .  S
C621        C622   1.379       .  A
C621       C1322   1.450       .  S
C622        H624   1.082       .  S
N625        N626   1.321       .  A
N625        C629   1.353       .  A
N625       Cu633   2.099       .  S
N626        C627   1.341       .  A
N626       Cu632   2.065       .  S
C627        C628   1.385       .  A
C627        H630   1.082       .  S
C628        C629   1.391       .  A
C628       C1315   1.489       .  S
C629        H631   1.082       .  S
Cu632       N635   2.065       .  S
Cu633       N643   2.101       .  S
Cu634       N636   2.090       .  S
Cu634       N642   2.092       .  S
N635        N636   1.321       .  A
N635        C639   1.341   1_565  A
N636        C637   1.352       .  A
C637        C638   1.391   1_565  A
C637        H640   1.081       .  S
C638        C639   1.380       .  A
C638       C1383   1.480       .  S
C639        H641   1.082       .  S
N642        N643   1.327       .  A
N642        C646   1.348       .  A
N643        C644   1.349       .  A
C644        C645   1.383       .  A
C644        H647   1.082       .  S
C645        C646   1.380       .  A
C645       C1319   1.447       .  S
C646        H648   1.082       .  S
N649        N650   1.321       .  A
N649        C653   1.356       .  A
N649       Cu657   2.109       .  S
N650        C651   1.339       .  A
N650       Cu656   2.057       .  S
C651        C652   1.377       .  A
C651        H654   1.082       .  S
C652        C653   1.394       .  A
C652       C1316   1.480       .  S
C653        H655   1.082       .  S
Cu656       N659   2.057       .  S
Cu657       N667   2.112       .  S
Cu658       N660   2.086       .  S
Cu658       N666   2.090       .  S
N659        N660   1.320       .  A
N659        C663   1.339       .  A
N660        C661   1.353       .  A
C661        C662   1.391       .  A
C661        H664   1.082       .  S
C662        C663   1.378       .  A
C662       C1378   1.475       .  S
C663        H665   1.082       .  S
N666        N667   1.328       .  A
N666        C670   1.348       .  A
N667        C668   1.351       .  A
C668        C669   1.385       .  A
C668        H671   1.082       .  S
C669        C670   1.380       .  A
C669       C1313   1.449       .  S
C670        H672   1.082       .  S
N673        N674   1.321       .  A
N673        C677   1.356       .  A
N673       Cu681   2.115       .  S
N674        C675   1.339       .  A
N674       Cu680   2.059       .  S
C675        C676   1.384       .  A
C675        H678   1.081       .  S
C676        C677   1.395       .  A
C676       C1307   1.494       .  S
C677        H679   1.082       .  S
Cu680       N683   2.059       .  S
Cu681       N691   2.118       .  S
Cu682       N684   2.093       .  S
Cu682       N690   2.095       .  S
N683        N684   1.319       .  A
N683        C687   1.341       .  A
N684        C685   1.351       .  A
C685        C686   1.390       .  A
C685        H688   1.082       .  S
C686        C687   1.387       .  A
C686       C1303   1.489       .  S
C687        H689   1.081       .  S
N690        N691   1.328       .  A
N690        C694   1.348       .  A
N691        C692   1.353       .  A
C692        C693   1.388       .  A
C692        H695   1.082       .  S
C693        C694   1.380       .  A
C693       C1311   1.455       .  S
C694        H696   1.082       .  S
N697        N698   1.323       .  A
N697        C701   1.358       .  A
N697       Cu705   2.119       .  S
N698        C699   1.338       .  A
N698       Cu704   2.059       .  S
C699        C700   1.377       .  A
C699        H702   1.082       .  S
C700        C701   1.395       .  A
C700       C1308   1.483       .  S
C701        H703   1.082       .  S
Cu704       N707   2.059       .  S
Cu705       N715   2.123       .  S
Cu706       N708   2.088   1_565  S
Cu706       N714   2.091       .  S
N707        N708   1.318       .  A
N707        C711   1.341       .  A
N708        C709   1.351   1_545  A
C709        C710   1.390   1_565  A
C709        H712   1.082       .  S
C710        C711   1.387       .  A
C710       C1297   1.487       .  S
C711        H713   1.081       .  S
N714        N715   1.328   1_565  A
N714        C718   1.347       .  A
N715        C716   1.354   1_545  A
C716        C717   1.389       .  A
C716        H719   1.082   1_565  S
C717        C718   1.379       .  A
C717       C1301   1.455       .  S
C718        H720   1.082       .  S
N721        N722   1.321       .  A
N721        C725   1.359       .  A
N721       Cu729   2.112       .  S
N722        C723   1.335       .  A
N722       Cu728   2.046       .  S
C723        C724   1.374       .  A
C723        H726   1.083       .  S
C724        C725   1.396       .  A
C724       C1292   1.479       .  S
C725        H727   1.082       .  S
Cu728       N731   2.047       .  S
Cu729       N739   2.117       .  S
Cu730       N732   2.084   1_565  S
Cu730       N738   2.087       .  S
N731        N732   1.317       .  A
N731        C735   1.339       .  A
N732        C733   1.351   1_545  A
C733        C734   1.391   1_565  A
C733        H736   1.082       .  S
C734        C735   1.385       .  A
C734       C1287   1.485       .  S
C735        H737   1.081       .  S
N738        N739   1.330   1_565  A
N738        C742   1.346       .  A
N739        C740   1.351   1_545  A
C740        C741   1.385       .  A
C740        H743   1.082   1_565  S
C741        C742   1.376       .  A
C741       C1295   1.446       .  S
C742        H744   1.082       .  S
N745        N746   1.319       .  A
N745        C749   1.355       .  A
N745       Cu753   2.104       .  S
N746        C747   1.338       .  A
N746       Cu752   2.055       .  S
C747        C748   1.387       .  A
C747        H750   1.080       .  S
C748        C749   1.395       .  A
C748       C1291   1.495       .  S
C749        H751   1.082       .  S
Cu752       N755   2.055       .  S
Cu753       N763   2.108       .  S
Cu754       N756   2.094       .  S
Cu754       N762   2.098       .  S
N755        N756   1.320       .  A
N755        C759   1.338       .  A
N756        C757   1.355       .  A
C757        C758   1.393       .  A
C757        H760   1.081       .  S
C758        C759   1.377       .  A
C758       C1281   1.477       .  S
C759        H761   1.082       .  S
N762        N763   1.329       .  A
N762        C766   1.349       .  A
N763        C764   1.350       .  A
C764        C765   1.384       .  A
C764        H767   1.082       .  S
C765        C766   1.381       .  A
C765       C1285   1.449       .  S
C766        H768   1.082       .  S
C769        C770   1.533       .  S
C769        C775   1.539       .  S
C769        C773   1.544       .  S
C769       C1314   1.480       .  S
C770        H777   1.087       .  S
C770        C771   1.360       .  D
C771        C772   1.534       .  S
C771       C1269   1.439       .  S
C772        C776   1.539       .  S
C772        C774   1.539       .  S
C772        H778   1.112       .  S
C773        H779   1.086       .  S
C773        C774   1.372       .  D
C774       C1273   1.454       .  S
C775        H780   1.086       .  S
C775        C776   1.367       .  D
C776       C1277   1.452       .  S
C781        C782   1.533       .  S
C781        C787   1.540       .  S
C781        C785   1.547       .  S
C781       C1302   1.487       .  S
C782        H789   1.087       .  S
C782        C783   1.361       .  D
C783        C784   1.533       .  S
C783       C1268   1.439       .  S
C784        C788   1.538       .  S
C784        C786   1.540       .  S
C784        H790   1.112       .  S
C785        H791   1.086       .  S
C785        C786   1.373       .  D
C786       C1261   1.461       .  S
C787        H792   1.086       .  S
C787        C788   1.368       .  D
C788       C1280   1.452       .  S
C793        C794   1.537       .  S
C793        C799   1.533       .  S
C793        C797   1.544       .  S
C793       C1296   1.477       .  S
C794        H801   1.087       .  S
C794        C795   1.365       .  D
C795        C796   1.536       .  S
C795       C1260   1.444       .  S
C796        C800   1.534       .  S
C796        C798   1.538       .  S
C796        H802   1.112       .  S
C797        H803   1.086       .  S
C797        C798   1.371       .  D
C798       C1253   1.453       .  S
C799        H804   1.087       .  S
C799        C800   1.361       .  D
C800       C1265   1.439       .  S
C805        C806   1.536       .  S
C805        C811   1.534       .  S
C805        C809   1.542       .  S
C805       C1320   1.478       .  S
C806        H813   1.087       .  S
C806        C807   1.365       .  D
C807        C808   1.538       .  S
C807       C1257   1.445       .  S
C808        C812   1.535       .  S
C808        C810   1.539       .  S
C808        H814   1.112       .  S
C809        H815   1.086       .  S
C809        C810   1.370       .  D
C810       C1276   1.453       .  S
C811        H816   1.087       .  S
C811        C812   1.362       .  D
C812       C1249   1.440       .  S
C817        C818   1.534       .  S
C817        C823   1.536       .  S
C817        C821   1.542       .  S
C817       C1327   1.477       .  S
C818        H825   1.087       .  S
C818        C819   1.362       .  D
C819        C820   1.535       .  S
C819       C1252   1.441       .  S
C820        C824   1.539       .  S
C820        C822   1.540       .  S
C820        H826   1.112       .  S
C821        H827   1.086       .  S
C821        C822   1.370       .  D
C822       C1241   1.454       .  S
C823        H828   1.087       .  S
C823        C824   1.365       .  D
C824       C1245   1.447       .  S
C829        C830   1.534       .  S
C829        C835   1.538       .  S
C829        C833   1.542       .  S
C829       C1286   1.480       .  S
C830        H837   1.087       .  S
C830        C831   1.362       .  D
C831        C832   1.534       .  S
C831       C1240   1.440       .  S
C832        C836   1.538       .  S
C832        C834   1.540       .  S
C832        H838   1.112       .  S
C833        H839   1.086       .  S
C833        C834   1.370       .  D
C834       C1256   1.454       .  S
C835        H840   1.086       .  S
C835        C836   1.367       .  D
C836       C1248   1.447       .  S
C841        C842   1.539       .  S
C841        C847   1.535       .  S
C841        C845   1.546       .  S
C841       C1312   1.486       .  S
C842        H849   1.086       .  S
C842        C843   1.367       .  D
C843        C844   1.536       .  S
C843       C1233   1.447       .  S
C844        C848   1.533       .  S
C844        C846   1.539       .  S
C844        H850   1.112       .  S
C845        H851   1.086       .  S
C845        C846   1.373       .  D
C846       C1264   1.460       .  S
C847        H852   1.087       .  S
C847        C848   1.363       .  D
C848       C1237   1.441       .  S
C853        C854   1.536       .  S
C853        C859   1.533       .  S
C853        C857   1.545       .  S
C853       C1321   1.481       .  S
C854        H861   1.087       .  S
C854        C855   1.365       .  D
C855        C856   1.538       .  S
C855       C1236   1.447       .  S
C856        C860   1.535       .  S
C856        C858   1.539       .  S
C856        H862   1.112       .  S
C857        H863   1.086       .  S
C857        C858   1.373       .  D
C858       C1244   1.454       .  S
C859        H864   1.087       .  S
C859        C860   1.361       .  D
C860       C1272   1.440       .  S
N865        N866   1.321       .  A
N865        C869   1.356       .  A
N865       Cu873   2.110       .  S
N866        C867   1.339       .  A
N866       Cu872   2.057       .  S
C867        C868   1.383       .  A
C867        H870   1.082       .  S
C868        C869   1.394       .  A
C868       C1227   1.491       .  S
C869        H871   1.082       .  S
Cu872       N875   2.057       .  S
Cu873       N883   2.113       .  S
Cu874       N876   2.084       .  S
Cu874       N882   2.087       .  S
N875        N876   1.319       .  A
N875        C879   1.340       .  A
N876        C877   1.350       .  A
C877        C878   1.389       .  A
C877        H880   1.082       .  S
C878        C879   1.385       .  A
C878       C1512   1.484       .  S
C879        H881   1.081       .  S
N882        N883   1.328       .  A
N882        C886   1.347       .  A
N883        C884   1.351       .  A
C884        C885   1.385       .  A
C884        H887   1.082       .  S
C885        C886   1.378       .  A
C885       C1232   1.447       .  S
C886        H888   1.082       .  S
N889        N890   1.322       .  A
N889        C893   1.356       .  A
N889       Cu897   2.106       .  S
N890        C891   1.339       .  A
N890       Cu896   2.063       .  S
C891        C892   1.379       .  A
C891        H894   1.082       .  S
C892        C893   1.394       .  A
C892       C1228   1.481       .  S
C893        H895   1.082       .  S
Cu896       N899   2.064       .  S
Cu897       N907   2.108       .  S
Cu898       N900   2.092       .  S
Cu898       N906   2.094       .  S
N899        N900   1.320       .  A
N899        C903   1.341       .  A
N900        C901   1.352       .  A
C901        C902   1.392       .  A
C901        H904   1.081       .  S
C902        C903   1.380       .  A
C902       C1506   1.481       .  S
C903        H905   1.082       .  S
N906        N907   1.328       .  A
N906        C910   1.348       .  A
N907        C908   1.350       .  A
C908        C909   1.384       .  A
C908        H911   1.082       .  S
C909        C910   1.381       .  A
C909       C1225   1.450       .  S
C910        H912   1.082       .  S
N913        N914   1.321       .  A
N913        C917   1.356       .  A
N913       Cu921   2.111       .  S
N914        C915   1.339       .  A
N914       Cu920   2.057       .  S
C915        C916   1.384       .  A
C915        H918   1.082       .  S
C916        C917   1.395       .  A
C916       C1219   1.493       .  S
C917        H919   1.082       .  S
Cu920       N923   2.056       .  S
Cu921       N931   2.114       .  S
Cu922       N924   2.086       .  S
Cu922       N930   2.088       .  S
N923        N924   1.319       .  A
N923        C927   1.340       .  A
N924        C925   1.351       .  A
C925        C926   1.390       .  A
C925        H928   1.082       .  S
C926        C927   1.386       .  A
C926       C1490   1.485       .  S
C927        H929   1.080       .  S
N930        N931   1.328       .  A
N930        C934   1.347       .  A
N931        C932   1.351       .  A
C932        C933   1.386       .  A
C932        H935   1.082       .  S
C933        C934   1.378       .  A
C933       C1223   1.449       .  S
C934        H936   1.082       .  S
N937        N938   1.323       .  A
N937        C941   1.358       .  A
N937       Cu945   2.110       .  S
N938        C939   1.338       .  A
N938       Cu944   2.066       .  S
C939        C940   1.377       .  A
C939        H942   1.082       .  S
C940        C941   1.395       .  A
C940       C1220   1.482       .  S
C941        H943   1.082       .  S
Cu944       N947   2.067       .  S
Cu945       N955   2.113       .  S
Cu946       N948   2.075       .  S
Cu946       N954   2.077       .  S
N947        N948   1.318       .  A
N947        C951   1.342   1_565  A
N948        C949   1.350       .  A
C949        C950   1.388   1_565  A
C949        H952   1.082       .  S
C950        C951   1.388       .  A
C950       C1496   1.487       .  S
C951        H953   1.081       .  S
N954        N955   1.328       .  A
N954        C958   1.345       .  A
N955        C956   1.352       .  A
C956        C957   1.386       .  A
C956        H959   1.082       .  S
C957        C958   1.375       .  A
C957       C1218   1.445       .  S
C958        H960   1.082       .  S
N961        N962   1.321       .  A
N961        C965   1.355       .  A
N961       Cu969   2.107       .  S
N962        C963   1.339       .  A
N962       Cu968   2.061       .  S
C963        C964   1.385       .  A
C963        H966   1.081       .  S
C964        C965   1.394       .  A
C964       C1211   1.494       .  S
C965        H967   1.082       .  S
Cu968       N971   2.062       .  S
Cu969       N979   2.109       .  S
Cu970       N972   2.086       .  S
Cu970       N978   2.089   1_545  S
N971        N972   1.320       .  A
N971        C975   1.341       .  A
N972        C973   1.351       .  A
C973        C974   1.390       .  A
C973        H976   1.081   1_545  S
C974        C975   1.380       .  A
C974       C1288   1.478       .  S
C975        H977   1.082       .  S
N978        N979   1.328   1_565  A
N978        C982   1.348       .  A
N979        C980   1.350   1_545  A
C980        C981   1.384       .  A
C980        H983   1.082   1_565  S
C981        C982   1.379       .  A
C981       C1215   1.447       .  S
C982        H984   1.082       .  S
N985        N986   1.322       .  A
N985        C989   1.358       .  A
N985       Cu993   2.108       .  S
N986        C987   1.338       .  A
N986       Cu992   2.062       .  S
C987        C988   1.377       .  A
C987        H990   1.082       .  S
C988        C989   1.395       .  A
C988       C1212   1.482       .  S
C989        H991   1.082       .  S
Cu992       N995   2.063       .  S
Cu993      N1003   2.112       .  S
Cu994       N996   2.079       .  S
Cu994      N1002   2.082       .  S
N995        N996   1.318       .  A
N995        C999   1.340       .  A
N996        C997   1.351       .  A
C997        C998   1.389       .  A
C997       H1000   1.082       .  S
C998        C999   1.387       .  A
C998       C1282   1.487       .  S
C999       H1001   1.081       .  S
N1002      N1003   1.328       .  A
N1002      C1006   1.345       .  A
N1003      C1004   1.351       .  A
C1004      C1005   1.385       .  A
C1004      H1007   1.082       .  S
C1005      C1006   1.376       .  A
C1005      C1209   1.444       .  S
C1006      H1008   1.082       .  S
N1009      N1010   1.321       .  A
N1009      C1013   1.353       .  A
N1009     Cu1017   2.097       .  S
N1010      C1011   1.340       .  A
N1010     Cu1016   2.060       .  S
C1011      C1012   1.384       .  A
C1011      H1014   1.082       .  S
C1012      C1013   1.391       .  A
C1012      C1203   1.487       .  S
C1013      H1015   1.082       .  S
Cu1016     N1019   2.060       .  S
Cu1017     N1027   2.100       .  S
Cu1018     N1020   2.094       .  S
Cu1018     N1026   2.096       .  S
N1019      N1020   1.320       .  A
N1019      C1023   1.339       .  A
N1020      C1021   1.354       .  A
C1021      C1022   1.393       .  A
C1021      H1024   1.081       .  S
C1022      C1023   1.378       .  A
C1022      C1304   1.479       .  S
C1023      H1025   1.082       .  S
N1026      N1027   1.328       .  A
N1026      C1030   1.348       .  A
N1027      C1028   1.349       .  A
C1028      C1029   1.383       .  A
C1028      H1031   1.082       .  S
C1029      C1030   1.380       .  A
C1029      C1207   1.447       .  S
C1030      H1032   1.082       .  S
N1033      N1034   1.321       .  A
N1033      C1037   1.355       .  A
N1033     Cu1041   2.098       .  S
N1034      C1035   1.338       .  A
N1034     Cu1040   2.058       .  S
C1035      C1036   1.376       .  A
C1035      H1038   1.082       .  S
C1036      C1037   1.393       .  A
C1036      C1204   1.477       .  S
C1037      H1039   1.082       .  S
Cu1040     N1043   2.058       .  S
Cu1041     N1051   2.102       .  S
Cu1042     N1044   2.083       .  S
Cu1042     N1050   2.086   1_545  S
N1043      N1044   1.319       .  A
N1043      C1047   1.339       .  A
N1044      C1045   1.352       .  A
C1045      C1046   1.392       .  A
C1045      H1048   1.081   1_545  S
C1046      C1047   1.379       .  A
C1046      C1298   1.478       .  S
C1047      H1049   1.082       .  S
N1050      N1051   1.328   1_565  A
N1050      C1054   1.345       .  A
N1051      C1052   1.349   1_545  A
C1052      C1053   1.383       .  A
C1052      H1055   1.082   1_565  S
C1053      C1054   1.377       .  A
C1053      C1201   1.442       .  S
C1054      H1056   1.082       .  S
C1057      C1058   1.536       .  S
C1057      C1063   1.532       .  S
C1057      C1061   1.542       .  S
C1057      C1231   1.478       .  S
C1058      H1065   1.087       .  S
C1058      C1059   1.365       .  D
C1059      C1060   1.538       .  S
C1059      C1197   1.445       .  S
C1060      C1064   1.535       .  S
C1060      C1062   1.539       .  S
C1060      H1066   1.112       .  S
C1061      H1067   1.086       .  S
C1061      C1062   1.371       .  D
C1062      C1196   1.452       .  S
C1063      H1068   1.087       .  S
C1063      C1064   1.361       .  D
C1064      C1189   1.440       .  S
C1069      C1070   1.537       .  S
C1069      C1075   1.533       .  S
C1069      C1073   1.541       .  S
C1069      C1208   1.477       .  S
C1070      H1077   1.086       .  S
C1070      C1071   1.365       .  D
C1071      C1072   1.536       .  S
C1071      C1200   1.445       .  S
C1072      C1076   1.534       .  S
C1072      C1074   1.538       .  S
C1072      H1078   1.112       .  S
C1073      H1079   1.086       .  S
C1073      C1074   1.370       .  D
C1074      C1181   1.449       .  S
C1075      H1080   1.087       .  S
C1075      C1076   1.362       .  D
C1076      C1185   1.440       .  S
C1081      C1082   1.535       .  S
C1081      C1087   1.539       .  S
C1081      C1085   1.543       .  S
C1081      C1226   1.481       .  S
C1082      H1089   1.087       .  S
C1082      C1083   1.362       .  D
C1083      C1084   1.532       .  S
C1083      C1173   1.440       .  S
C1084      C1088   1.534       .  S
C1084      C1086   1.536       .  S
C1084      H1090   1.112       .  S
C1085      H1091   1.086       .  S
C1085      C1086   1.370       .  D
C1086      C1193   1.451       .  S
C1087      H1092   1.086       .  S
C1087      C1088   1.366       .  D
C1088      C1177   1.444       .  S
C1093      C1094   1.535       .  S
C1093      C1099   1.535       .  S
C1093      C1097   1.542       .  S
C1093      C1210   1.475       .  S
C1094      H1101   1.087       .  S
C1094      C1095   1.362       .  D
C1095      C1096   1.533       .  S
C1095      C1188   1.440       .  S
C1096      C1100   1.536       .  S
C1096      C1098   1.536       .  S
C1096      H1102   1.112       .  S
C1097      H1103   1.086       .  S
C1097      C1098   1.370       .  D
C1098      C1172   1.448       .  S
C1099      H1104   1.087       .  S
C1099      C1100   1.364       .  D
C1100      C1180   1.444       .  S
C1105      C1106   1.537       .  S
C1105      C1111   1.535       .  S
C1105      C1109   1.539       .  S
C1105      C1216   1.478       .  S
C1106      H1113   1.086       .  S
C1106      C1107   1.365       .  D
C1107      C1108   1.536       .  S
C1107      C1165   1.444       .  S
C1108      C1112   1.534       .  S
C1108      C1110   1.540       .  S
C1108      H1114   1.112       .  S
C1109      H1115   1.086       .  S
C1109      C1110   1.368       .  D
C1110      C1169   1.449       .  S
C1111      H1116   1.087       .  S
C1111      C1112   1.363       .  D
C1112      C1161   1.442       .  S
C1117      C1118   1.536       .  S
C1117      C1123   1.533       .  S
C1117      C1121   1.542       .  S
C1117      C1217   1.476       .  S
C1118      H1125   1.087       .  S
C1118      C1119   1.365       .  D
C1119      C1120   1.537       .  S
C1119      C1168   1.444       .  S
C1120      C1124   1.534       .  S
C1120      C1122   1.539       .  S
C1120      H1126   1.112       .  S
C1121      H1127   1.086       .  S
C1121      C1122   1.370       .  D
C1122      C1157   1.451       .  S
C1123      H1128   1.087       .  S
C1123      C1124   1.361       .  D
C1124      C1176   1.439       .  S
C1129      C1130   1.537       .  S
C1129      C1135   1.536       .  S
C1129      C1133   1.544       .  S
C1129      C1224   1.480       .  S
C1130      H1137   1.087       .  S
C1130      C1131   1.364       .  D
C1131      C1132   1.532       .  S
C1131      C1192   1.440       .  S
C1132      C1136   1.534       .  S
C1132      C1134   1.536       .  S
C1132      H1138   1.112       .  S
C1133      H1139   1.086       .  S
C1133      C1134   1.371       .  D
C1134      C1160   1.451       .  S
C1135      H1140   1.087       .  S
C1135      C1136   1.364       .  D
C1136      C1153   1.442       .  S
C1141      C1142   1.534       .  S
C1141      C1147   1.534       .  S
C1141      C1145   1.540       .  S
C1141      C1202   1.473       .  S
C1142      H1149   1.087       .  S
C1142      C1143   1.362       .  D
C1143      C1144   1.535       .  S
C1143      C1164   1.442       .  S
C1144      C1148   1.537       .  S
C1144      C1146   1.538       .  S
C1144      H1150   1.112       .  S
C1145      H1151   1.086       .  S
C1145      C1146   1.368       .  D
C1146      C1184   1.448       .  S
C1147      H1152   1.087       .  S
C1147      C1148   1.364       .  D
C1148      C1156   1.442       .  S
C1153      C1154   1.206       .  T
C1154      C1155   1.413       .  S
C1155      C1156   1.206       .  T
C1157      C1158   1.212       .  T
C1158      C1159   1.422   1_655  S
C1159      C1160   1.212       .  T
C1161      C1162   1.206       .  T
C1162      C1163   1.412   1_655  S
C1163      C1164   1.206       .  T
C1165      C1166   1.207       .  T
C1166      C1167   1.415       .  S
C1167      C1168   1.207       .  T
C1169      C1170   1.210       .  T
C1170      C1171   1.419       .  S
C1171      C1172   1.210       .  T
C1173      C1174   1.204       .  T
C1174      C1175   1.410       .  S
C1175      C1176   1.204       .  T
C1177      C1178   1.207       .  T
C1178      C1179   1.415       .  S
C1179      C1180   1.207       .  T
C1181      C1182   1.210       .  T
C1182      C1183   1.419       .  S
C1183      C1184   1.210       .  T
C1185      C1186   1.205   1_455  T
C1186      C1187   1.410       .  S
C1187      C1188   1.205       .  T
C1189      C1190   1.205       .  T
C1190      C1191   1.410       .  S
C1191      C1192   1.205       .  T
C1193      C1194   1.212       .  T
C1194      C1195   1.422       .  S
C1195      C1196   1.212   1_655  T
C1197      C1198   1.208       .  T
C1198      C1199   1.416       .  S
C1199      C1200   1.208       .  T
C1201      C1202   1.209       .  T
C1203      H1205   1.086       .  S
C1203      C1204   1.345       .  D
C1204      H1206   1.086       .  S
C1207      C1208   1.212       .  T
C1209      C1210   1.210       .  T
C1211      H1213   1.085       .  S
C1211      C1212   1.348       .  D
C1212      H1214   1.085       .  S
C1215      C1216   1.212       .  T
C1217      C1218   1.211       .  T
C1219      H1221   1.085       .  S
C1219      C1220   1.348       .  D
C1220      H1222   1.085       .  S
C1223      C1224   1.213       .  T
C1225      C1226   1.214       .  T
C1227      H1229   1.085       .  S
C1227      C1228   1.348       .  D
C1228      H1230   1.086       .  S
C1231      C1232   1.212       .  T
C1233      C1234   1.209       .  T
C1234      C1235   1.418       .  S
C1235      C1236   1.209       .  T
C1237      C1238   1.205       .  T
C1238      C1239   1.411       .  S
C1239      C1240   1.205       .  T
C1241      C1242   1.213       .  T
C1242      C1243   1.425       .  S
C1243      C1244   1.214       .  T
C1245      C1246   1.209       .  T
C1246      C1247   1.418       .  S
C1247      C1248   1.209       .  T
C1249      C1250   1.205       .  T
C1250      C1251   1.411       .  S
C1251      C1252   1.205       .  T
C1253      C1254   1.213       .  T
C1254      C1255   1.424       .  S
C1255      C1256   1.213       .  T
C1257      C1258   1.208       .  T
C1258      C1259   1.415       .  S
C1259      C1260   1.208       .  T
C1261      C1262   1.217       .  T
C1262      C1263   1.431       .  S
C1263      C1264   1.217       .  T
C1265      C1266   1.204       .  T
C1266      C1267   1.410       .  S
C1267      C1268   1.204       .  T
C1269      C1270   1.204       .  T
C1270      C1271   1.410       .  S
C1271      C1272   1.204       .  T
C1273      C1274   1.213       .  T
C1274      C1275   1.424       .  S
C1275      C1276   1.213       .  T
C1277      C1278   1.212       .  T
C1278      C1279   1.422       .  S
C1279      C1280   1.212       .  T
C1281      H1283   1.085       .  S
C1281      C1282   1.345       .  D
C1282      H1284   1.086       .  S
C1285      C1286   1.213       .  T
C1287      H1289   1.085   1_545  S
C1287      C1288   1.346       .  D
C1288      H1290   1.085       .  S
C1291      H1293   1.086       .  S
C1291      C1292   1.347       .  D
C1292      H1294   1.083       .  S
C1295      C1296   1.212       .  T
C1297      H1299   1.086   1_545  S
C1297      C1298   1.345       .  D
C1298      H1300   1.085       .  S
C1301      C1302   1.217       .  T
C1303      H1305   1.086       .  S
C1303      C1304   1.346       .  D
C1304      H1306   1.085       .  S
C1307      H1309   1.085       .  S
C1307      C1308   1.348       .  D
C1308      H1310   1.085       .  S
C1311      C1312   1.217       .  T
C1313      C1314   1.213       .  T
C1315      H1317   1.086       .  S
C1315      C1316   1.346   1_655  D
C1316      H1318   1.086   1_455  S
C1319      C1320   1.212       .  T
C1321      C1322   1.214       .  T
C1323      H1325   1.083       .  S
C1323      C1324   1.349       .  D
C1324      H1326   1.086       .  S
C1327      C1328   1.211       .  T
C1329      C1330   1.210       .  T
C1330      C1331   1.419       .  S
C1331      C1332   1.210       .  T
C1333      C1334   1.212       .  T
C1334      C1335   1.422       .  S
C1335      C1336   1.212       .  T
C1337      C1338   1.204       .  T
C1338      C1339   1.410       .  S
C1339      C1340   1.204       .  T
C1341      C1342   1.207       .  T
C1342      C1343   1.414       .  S
C1343      C1344   1.207       .  T
C1345      C1346   1.205       .  T
C1346      C1347   1.412       .  S
C1347      C1348   1.205       .  T
C1349      C1350   1.215       .  T
C1350      C1351   1.427       .  S
C1351      C1352   1.215       .  T
C1353      C1354   1.208       .  T
C1354      C1355   1.416       .  S
C1355      C1356   1.208       .  T
C1357      C1358   1.215       .  T
C1358      C1359   1.428       .  S
C1359      C1360   1.215       .  T
C1361      C1362   1.206       .  T
C1362      C1363   1.412       .  S
C1363      C1364   1.206       .  T
C1365      C1366   1.205       .  T
C1366      C1367   1.410       .  S
C1367      C1368   1.205       .  T
C1369      C1370   1.212       .  T
C1370      C1371   1.422       .  S
C1371      C1372   1.212       .  T
C1373      C1374   1.209       .  T
C1374      C1375   1.418       .  S
C1375      C1376   1.209       .  T
C1377      H1379   1.086   1_554  S
C1377      C1378   1.345   1_554  D
C1378      H1380   1.084   1_556  S
C1381      C1382   1.214       .  T
C1383      H1385   1.085       .  S
C1383      C1384   1.346       .  D
C1384      H1386   1.086       .  S
C1387      H1389   1.085       .  S
C1387      C1388   1.349   1_655  D
C1388      H1390   1.085   1_455  S
C1391      C1392   1.215       .  T
C1393      H1395   1.084   1_556  S
C1393      C1394   1.347   1_556  D
C1394      H1396   1.086   1_554  S
C1397      C1398   1.214       .  T
C1399      H1401   1.085       .  S
C1399      C1400   1.345       .  D
C1400      H1402   1.086       .  S
C1403      H1405   1.085       .  S
C1403      C1404   1.350   1_655  D
C1404      H1406   1.082   1_455  S
C1407      C1408   1.215       .  T
C1409      C1410   1.212       .  T
C1411      H1413   1.086       .  S
C1411      C1412   1.346       .  D
C1412      H1414   1.086       .  S
C1415      C1416   1.213       .  T
C1417      C1418   1.213       .  T
C1419      H1421   1.086       .  S
C1419      C1420   1.347       .  D
C1420      H1422   1.085       .  S
C1423      C1424   1.212       .  T
C1425      H1427   1.085       .  S
C1425      C1426   1.346       .  D
C1426      H1428   1.085       .  S
C1429      H1431   1.086       .  S
C1429      C1430   1.345       .  D
C1430      H1432   1.085       .  S
C1433      H1435   1.084       .  S
C1433      C1434   1.348       .  D
C1434      H1436   1.085       .  S
C1437      C1438   1.209       .  T
C1438      C1439   1.418       .  S
C1439      C1440   1.209       .  T
C1441      C1442   1.204       .  T
C1442      C1443   1.410       .  S
C1443      C1444   1.204       .  T
C1445      C1446   1.212       .  T
C1446      C1447   1.423       .  S
C1447      C1448   1.213       .  T
C1449      C1450   1.211       .  T
C1450      C1451   1.420       .  S
C1451      C1452   1.211       .  T
C1453      C1454   1.213       .  T
C1455      C1456   1.205       .  T
C1456      C1457   1.412   1_655  S
C1457      C1458   1.205       .  T
C1459      C1460   1.211       .  T
C1460      C1461   1.421   1_455  S
C1461      C1462   1.211       .  T
C1463      C1464   1.209       .  T
C1464      C1465   1.418       .  S
C1465      C1466   1.209       .  T
C1467      C1468   1.214       .  T
C1469      C1470   1.213       .  T
C1470      C1471   1.424       .  S
C1471      C1472   1.213       .  T
C1473      C1474   1.209       .  T
C1474      C1475   1.417   1_655  S
C1475      C1476   1.208       .  T
C1477      C1478   1.204       .  T
C1478      C1479   1.409       .  S
C1479      C1480   1.204       .  T
C1481      C1482   1.212       .  T
C1482      C1483   1.423   1_655  S
C1483      C1484   1.212       .  T
C1485      C1486   1.210       .  T
C1486      C1487   1.418       .  S
C1487      C1488   1.209       .  T
C1489      H1491   1.084       .  S
C1489      C1490   1.346       .  D
C1490      H1492   1.085       .  S
C1493      C1494   1.211       .  T
C1495      H1497   1.085       .  S
C1495      C1496   1.344       .  D
C1496      H1498   1.085       .  S
C1499      H1501   1.087       .  S
C1499      C1500   1.345       .  D
C1500      H1502   1.086       .  S
C1503      C1504   1.213       .  T
C1505      H1507   1.085       .  S
C1505      C1506   1.346       .  D
C1506      H1508   1.084       .  S
C1509      C1510   1.215       .  T
C1511      H1513   1.085       .  S
C1511      C1512   1.345       .  D
C1512      H1514   1.086       .  S
C1515      H1517   1.086       .  S
C1515      C1516   1.349       .  D
C1516      H1518   1.085       .  S
C1519      C1520   1.213       .  T
C1521      H1523   1.085       .  S
C1521      C1522   1.345       .  D
C1522      H1524   1.085       .  S
C1525      C1526   1.218       .  T
C1527      H1529   1.084       .  S
C1527      C1528   1.347       .  D
C1528      H1530   1.086       .  S
C1531      H1533   1.086       .  S
C1531      C1532   1.348       .  D
C1532      H1534   1.085       .  S
C1535      C1536   1.212       .  T
