geometry optimzed in LAMMPS
_audit_creation_date              2020-11-30 
_audit_creation_method            'lammps2cif' 
_symmetry_space_group_name_H-M    'P1' 
_symmetry_Int_Tables_number       1 
_symmetry_cell_setting            triclinic 
loop_ 
_symmetry_equiv_pos_as_xyz 
  x,y,z 
_cell_length_a                    36.42900556 
_cell_length_b                    36.45506401893168 
_cell_length_c                    32.92940478898785 
_cell_angle_alpha                 89.69343410480852 
_cell_angle_beta                  89.57703333079353 
_cell_angle_gamma                 85.880806837256 
loop_ 
_atom_site_label 
_atom_site_type_symbol 
_atom_site_fract_x 
_atom_site_fract_y 
_atom_site_fract_z 
_atom_site_charge 
N1          N  0.42486567  0.02089489  0.44942743    -0.05200
N2          N  0.40417296  0.03363020  0.41893131    -0.57300
N3          N  0.42424194  0.48522661  0.04484470    -0.04800
N4          N  0.40278650  0.47352036  0.07402945    -0.59400
N5          N  0.42326192  0.01831860  0.04470813    -0.04400
N6          N  0.40070110  0.03231826  0.07301983    -0.57300
N7          N  0.42423903  0.48278003  0.45222731    -0.04100
N8          N  0.40426964  0.47157841  0.42196588    -0.59800
C9          C  0.39037999  0.50329183  0.40456179     0.97000
C10         C  0.38826100  0.00246664  0.09149932     0.96800
N11         N  0.02230607  0.41797635  0.04483797    -0.05400
N12         N  0.03671801  0.39617614  0.07351221    -0.57900
N13         N  0.48823816  0.42018482  0.45181320    -0.03500
N14         N  0.47696278  0.39997820  0.42183431    -0.59100
N15         N  0.02764574  0.42558743  0.45034661    -0.05400
N16         N  0.04156978  0.40470581  0.42047612    -0.58100
N17         N  0.48827296  0.42120986  0.04498067    -0.03100
N18         N  0.47631455  0.40048350  0.07462842    -0.59200
Mn19       Mn  0.45634732  0.45312305  0.99822210     1.18400
C20         C  0.00719498  0.38363364  0.09260445     0.99100
C21         C  0.50860346  0.38651097  0.40393970     0.99800
N22         N  0.48175818  0.07640536  0.04774730    -0.05400
N23         N  0.46615306  0.09746534  0.07635110    -0.61700
N24         N  0.02169999  0.08118445  0.46421092    -0.04200
N25         N  0.03559251  0.10160114  0.43558667    -0.62400
N26         N  0.48581838  0.07978720  0.45089891    -0.04900
N27         N  0.47495785  0.10096605  0.41986075    -0.62000
N28         N  0.01620711  0.07811877  0.05449847    -0.03800
N29         N  0.02630717  0.09756546  0.08588134    -0.62700
Mn30       Mn  0.45223371  0.05206535  0.49656280     1.10700
C31         C  0.99386032  0.11137943  0.10212156     1.00300
C32         C  0.50692558  0.11124158  0.40347105     1.00400
N33         N  0.08520941  0.48718700  0.45601069    -0.04900
N34         N  0.10752182  0.47677941  0.42573181    -0.60300
N35         N  0.07933500  0.01160596  0.05226495    -0.04200
N36         N  0.10070892  0.02011623  0.08261175    -0.57000
N37         N  0.08064325  0.47631076  0.04825669    -0.05500
N38         N  0.10165166  0.46044057  0.07670777    -0.59900
N39         N  0.08411072  0.01827218  0.46034483    -0.04500
N40         N  0.10500817  0.03292704  0.43260719    -0.57000
Mn41       Mn  0.05233250  0.44889296  0.99945331     1.20200
Mn42       Mn  0.05229954  0.04687217  0.50934180     1.10100
Cl43       Cl  0.00118959  0.00194225  0.00197594    -0.85000
C44         C  0.11849877  0.50887185  0.41062337     0.97300
C45         C  0.11364411  0.98692713  0.09744357     0.97100
N46         N  0.48726368  0.30827327  0.24691208    -0.35700
N47         N  0.49628337  0.24945634  0.18619919    -0.56200
N48         N  0.50026132  0.19470233  0.25051872    -0.35600
N49         N  0.48626419  0.25341205  0.31066299    -0.56200
C50         C  0.47791123  0.32749498  0.21288566     0.27900
C51         C  0.47748022  0.32989129  0.27902707     0.27900
C52         C  0.50084152  0.17255277  0.21759962     0.27900
C53         C  0.49078033  0.17453750  0.28307111     0.27900
C54         C  0.49681967  0.27916253  0.16153299     0.36500
C55         C  0.50844910  0.21995343  0.16383264     0.36600
C56         C  0.48790990  0.28351625  0.33424786     0.36500
C57         C  0.48892994  0.22396283  0.33583202     0.36600
C58         C  0.46241728  0.36206314  0.22351869    -0.20900
C59         C  0.46237835  0.36365231  0.26528110    -0.20900
C60         C  0.49262462  0.13752776  0.22961951    -0.20900
C61         C  0.48590599  0.13888582  0.27077074    -0.20900
C62         C  0.50874162  0.26838840  0.12302116    -0.22000
C63         C  0.51630965  0.23095793  0.12454409    -0.22000
C64         C  0.49126008  0.27308940  0.37468392    -0.22000
C65         C  0.49168781  0.23543198  0.37569293    -0.22000
C66         C  0.48498309  0.31561827  0.17257644    -0.17300
C67         C  0.48309648  0.32032671  0.32027048    -0.17300
C68         C  0.48759204  0.18689439  0.32379519    -0.17300
C69         C  0.50943962  0.18293419  0.17725824    -0.17300
H70         H  0.45253210  0.38405507  0.20329986     0.15600
H71         H  0.45222538  0.38696072  0.28339472     0.15600
H72         H  0.49130393  0.11342235  0.21083048     0.15600
H73         H  0.47851356  0.11604428  0.28951803     0.15600
H74         H  0.51151144  0.28562004  0.09646902     0.13900
H75         H  0.52570693  0.21374426  0.09931962     0.13900
H76         H  0.49228785  0.29071798  0.40091933     0.13900
H77         H  0.49375470  0.21843793  0.40274648     0.13900
H78         H  0.50138756  0.28262498  0.24817051     0.27100
H79         H  0.50743969  0.22164560  0.25096025     0.27100
N80         N  0.31115394  0.48375257  0.24808741    -0.35700
N81         N  0.25617144  0.48410350  0.31254572    -0.56200
N82         N  0.19767127  0.49651391  0.25248936    -0.35600
N83         N  0.25255057  0.49231001  0.18769057    -0.56200
C84         C  0.33256677  0.47346012  0.28015544     0.27900
C85         C  0.33039377  0.47431156  0.21397179     0.27900
C86         C  0.17747017  0.48803279  0.28544641     0.27900
C87         C  0.17553399  0.49609804  0.21968139     0.27900
C88         C  0.28650779  0.48534212  0.33576696     0.36500
C89         C  0.22684506  0.48799554  0.33793305     0.36600
C90         C  0.28213502  0.49300187  0.16273262     0.36500
C91         C  0.22273331  0.50341716  0.16536524     0.36600
C92         C  0.36614339  0.45784459  0.26629077    -0.20900
C93         C  0.36471437  0.45821447  0.22453177    -0.20900
C94         C  0.14183000  0.48264392  0.27347643    -0.20900
C95         C  0.14053260  0.48800421  0.23208497    -0.20900
C96         C  0.27635247  0.48962840  0.37624337    -0.22000
C97         C  0.23861359  0.49111181  0.37761890    -0.22000
C98         C  0.27095558  0.50390780  0.12407434    -0.22000
C99         C  0.23340823  0.51071328  0.12580396    -0.22000
C100        C  0.32318390  0.47924429  0.32148221    -0.17300
C101        C  0.31879538  0.48182478  0.17366349    -0.17300
C102        C  0.18577121  0.50406226  0.17912913    -0.17300
C103        C  0.18967510  0.48672477  0.32622799    -0.17300
H104        H  0.38929205  0.44724662  0.28433403     0.15600
H105        H  0.38665774  0.44812182  0.20427534     0.15600
H106        H  0.11894390  0.47597351  0.29262738     0.15600
H107        H  0.11646699  0.48608380  0.21337663     0.15600
H108        H  0.29418378  0.49054091  0.40229489     0.13900
H109        H  0.22180489  0.49384450  0.40482046     0.13900
H110        H  0.28795218  0.50637059  0.09724810     0.13900
H111        H  0.21590605  0.51921466  0.10053663     0.13900
H112        H  0.28569325  0.49833202  0.24948505     0.27100
H113        H  0.22455906  0.50397027  0.25255041     0.27100
C114        C  0.15627492  0.51147520  0.14852187    -0.15500
C115        C  0.13968514  0.48373303  0.13160744    -0.30700
H116        H  0.15189265  0.03647887  0.13697421     0.13500
H117        H  0.14694812  0.45575612  0.14179165     0.14100
C118        C  0.14484628  0.51211431  0.37678895    -0.15500
C119        C  0.16186513  0.48259825  0.35880418    -0.30700
H120        H  0.15390469  0.03377708  0.36943377     0.13500
H121        H  0.15624261  0.45500779  0.36844153     0.14100
C122        C  0.36191161  0.50725747  0.12545617    -0.15500
C123        C  0.34698541  0.47766057  0.14094618    -0.30700
H124        H  0.35307201  0.53437151  0.13700153     0.13500
H125        H  0.35972892  0.94794766  0.13476517     0.14100
C126        C  0.35318595  0.47593959  0.35184651    -0.15500
C127        C  0.36359472  0.50573326  0.37119333    -0.30700
H128        H  0.36615852  0.44884890  0.35856523     0.13500
H129        H  0.35611765  0.03024696  0.35545924     0.14100
C130        C  0.51723027  0.15361183  0.14640160    -0.15500
C131        C  0.48976924  0.13578962  0.13062817    -0.30700
H132        H  0.04511782  0.14748999  0.14266768     0.13500
H133        H  0.46186762  0.14216424  0.14171033     0.14100
C134        C  0.48212282  0.15933330  0.35625204    -0.15500
C135        C  0.51010503  0.13617292  0.36849417    -0.30700
H136        H  0.95201375  0.15701014  0.37522245     0.13500
H137        H  0.53690295  0.13726133  0.35398231     0.14100
C138        C  0.48059682  0.34354684  0.13989411    -0.15500
C139        C  0.50971287  0.36079664  0.12697413    -0.30700
H140        H  0.45368760  0.34926685  0.12634513     0.13500
H141        H  0.03831280  0.34756263  0.13594852     0.14100
C142        C  0.51066629  0.35968871  0.37050108    -0.15500
C143        C  0.48059720  0.35022253  0.35085808    -0.30700
H144        H  0.03975574  0.35492425  0.35769429     0.13500
H145        H  0.45378876  0.36397504  0.35746737     0.14100
N146        N  0.42639957  0.01867086  0.95170769    -0.05200
N147        N  0.40548721  0.03243628  0.92195974    -0.57300
N148        N  0.42258576  0.47987451  0.54589852    -0.04800
N149        N  0.40319741  0.46626009  0.57562133    -0.59400
N150        N  0.42104506  0.02323525  0.54309520    -0.04400
N151        N  0.39932339  0.03801523  0.57180489    -0.57300
N152        N  0.42655859  0.48686232  0.95125190    -0.04100
N153        N  0.40601303  0.47603081  0.92127357    -0.59800
C154        C  0.39343994  0.50792078  0.90319440     0.97000
C155        C  0.38691654  0.00869851  0.59151153     0.96800
N156        N  0.02713719  0.41996618  0.54344229    -0.05400
N157        N  0.04149275  0.39717471  0.57127542    -0.57900
N158        N  0.48974279  0.42260607  0.95160631    -0.03500
N159        N  0.47821009  0.40121915  0.92277402    -0.59100
N160        N  0.02182191  0.42217978  0.95149554    -0.05400
N161        N  0.03504319  0.40169032  0.92101738    -0.58100
N162        N  0.48673134  0.41720783  0.54545749    -0.03100
N163        N  0.47507290  0.39605865  0.57493732    -0.59200
Mn164      Mn  0.45463723  0.44925279  0.49881894     1.18400
C165        C  0.01187140  0.38366007  0.58923651     0.99100
C166        C  0.50967138  0.38678424  0.90522844     0.99800
N167        N  0.48040316  0.08082405  0.54444155    -0.05400
N168        N  0.46490272  0.10124771  0.57367086    -0.61700
N169        N  0.02076376  0.08245533  0.96097123    -0.04200
N170        N  0.03509074  0.10317035  0.93285681    -0.62400
N171        N  0.48639495  0.07782569  0.95425344    -0.04900
N172        N  0.47513843  0.09889819  0.92328365    -0.62000
N173        N  0.01828106  0.07494432  0.55753076    -0.03800
N174        N  0.02866527  0.09407360  0.58896900    -0.62700
Mn175      Mn  0.45374139  0.04858588  0.99929859     1.10700
C176        C  0.99641105  0.10626853  0.60676087     1.00300
C177        C  0.50689106  0.10963541  0.90680358     1.00400
N178        N  0.08131394  0.48225610  0.95473576    -0.04900
N179        N  0.10233248  0.47145217  0.92344626    -0.60300
N180        N  0.08190486  0.01002554  0.55350932    -0.04200
N181        N  0.10174589  0.01873274  0.58503613    -0.57000
N182        N  0.08326825  0.48073003  0.54929361    -0.05500
N183        N  0.10459570  0.46572014  0.57801240    -0.59900
N184        N  0.08119825  0.01786271  0.95896745    -0.04500
N185        N  0.10150070  0.03169140  0.93017369    -0.57000
Mn186      Mn  0.05667588  0.45262371  0.49947026     1.20200
Mn187      Mn  0.05023305  0.04825790  0.00722617     1.10100
Cl188      Cl  0.00429172  0.99959749  0.50305560    -0.85000
C189        C  0.11311741  0.50339570  0.90758355     0.97300
C190        C  0.11518371  0.98572583  0.59977036     0.97100
N191        N  0.48745811  0.30603729  0.75064287    -0.35700
N192        N  0.49623995  0.24768343  0.68940009    -0.56200
N193        N  0.49955752  0.19245807  0.75310973    -0.35600
N194        N  0.48604910  0.25085748  0.81391666    -0.56200
C195        C  0.47758730  0.32534929  0.71678415     0.27900
C196        C  0.47775716  0.32741432  0.78300453     0.27900
C197        C  0.50042373  0.17053865  0.71997447     0.27900
C198        C  0.48990125  0.17208237  0.78541372     0.27900
C199        C  0.49701922  0.27757694  0.66505083     0.36500
C200        C  0.50865745  0.21836332  0.66689347     0.36600
C201        C  0.48785690  0.28073620  0.83785715     0.36500
C202        C  0.48802938  0.22117358  0.83876647     0.36600
C203        C  0.46181181  0.35969177  0.72781582    -0.20900
C204        C  0.46218350  0.36108360  0.76959566    -0.20900
C205        C  0.49213174  0.13543803  0.73154321    -0.20900
C206        C  0.48518870  0.13648564  0.77271217    -0.20900
C207        C  0.50934417  0.26705835  0.62658108    -0.22000
C208        C  0.51701650  0.22966016  0.62786393    -0.22000
C209        C  0.49063891  0.26997346  0.87821019    -0.22000
C210        C  0.49046719  0.23231556  0.87881223    -0.22000
C211        C  0.48470648  0.31388479  0.67629061    -0.17300
C212        C  0.48363413  0.31767739  0.82419428    -0.17300
C213        C  0.48650908  0.18419856  0.82625596    -0.17300
C214        C  0.50928766  0.18123989  0.67982335    -0.17300
H215        H  0.45157109  0.38172209  0.70784467     0.15600
H216        H  0.45195672  0.38419336  0.78796596     0.15600
H217        H  0.49090264  0.11155424  0.71236763     0.15600
H218        H  0.47774741  0.11349920  0.79120908     0.15600
H219        H  0.51223282  0.28434652  0.60011569     0.13900
H220        H  0.52668122  0.21263810  0.60258893     0.13900
H221        H  0.49170098  0.28742898  0.90459304     0.13900
H222        H  0.49199761  0.21510641  0.90572015     0.13900
H223        H  0.50190229  0.28051887  0.75165314     0.27100
H224        H  0.50665964  0.21940588  0.75387745     0.27100
N225        N  0.30901923  0.50500133  0.75319362    -0.35700
N226        N  0.25381414  0.48692262  0.81396216    -0.56200
N227        N  0.19569478  0.50165552  0.75398416    -0.35600
N228        N  0.25126938  0.51517182  0.69216140    -0.56200
C229        C  0.33107096  0.49205323  0.78373497     0.27900
C230        C  0.32988069  0.50564020  0.71901519     0.27900
C231        C  0.17569109  0.48884861  0.78509484     0.27900
C232        C  0.17438338  0.50271593  0.72045066     0.27900
C233        C  0.28346951  0.48775599  0.83830785     0.36500
C234        C  0.22411306  0.48609978  0.83876042     0.36600
C235        C  0.28016002  0.52514866  0.66964123     0.36500
C236        C  0.22061709  0.52372076  0.67011931     0.36600
C237        C  0.36658367  0.48490721  0.76902369    -0.20900
C238        C  0.36588731  0.49354247  0.72829014    -0.20900
C239        C  0.14093985  0.48217471  0.77137521    -0.20900
C240        C  0.14004350  0.49100190  0.73070973    -0.20900
C241        C  0.27259598  0.48696345  0.87871897    -0.22000
C242        C  0.23504337  0.48589250  0.87900425    -0.22000
C243        C  0.26780897  0.53967810  0.63278637    -0.22000
C244        C  0.23019666  0.53876724  0.63307848    -0.22000
C245        C  0.32040840  0.48785393  0.82484593    -0.17300
C246        C  0.31768438  0.51840790  0.68021119    -0.17300
C247        C  0.18442293  0.51564913  0.68143276    -0.17300
C248        C  0.18729461  0.48450896  0.82590132    -0.17300
H249        H  0.39059781  0.47468723  0.78591779     0.15600
H250        H  0.38947442  0.49143239  0.70808386     0.15600
H251        H  0.11838988  0.47228523  0.78891198     0.15600
H252        H  0.11643186  0.48938334  0.71125797     0.15600
H253        H  0.28990633  0.48712260  0.90528293     0.13900
H254        H  0.21776820  0.48511083  0.90583484     0.13900
H255        H  0.28419423  0.54929501  0.60788690     0.13900
H256        H  0.21209210  0.54760065  0.60844704     0.13900
H257        H  0.28173093  0.51461985  0.75607220     0.27100
H258        H  0.22176226  0.51082945  0.75602864     0.27100
C259        C  0.15547392  0.52050080  0.64986157    -0.15500
C260        C  0.14113799  0.49133586  0.63304433    -0.30700
H261        H  0.14835405  0.03673337  0.64271636     0.13500
H262        H  0.14999882  0.46382386  0.64354941     0.14100
C263        C  0.13797723  0.50676667  0.87246346    -0.15500
C264        C  0.15908075  0.47829328  0.85753562    -0.30700
H265        H  0.14240730  0.03103485  0.86030815     0.13500
H266        H  0.15836632  0.45111805  0.87107175     0.14100
C267        C  0.36335367  0.49385207  0.63023206    -0.15500
C268        C  0.34559825  0.52324010  0.64769742    -0.30700
H269        H  0.35823962  0.46652824  0.64130292     0.13500
H270        H  0.35664086  0.95520711  0.63481168     0.14100
C271        C  0.34963885  0.48247205  0.85596409    -0.15500
C272        C  0.36770471  0.51097465  0.86879804    -0.30700
H273        H  0.35349006  0.45590286  0.87102002     0.13500
H274        H  0.35691535  0.03147469  0.85926635     0.14100
C275        C  0.51671569  0.15229559  0.64845503    -0.15500
C276        C  0.48878085  0.13727467  0.62996501    -0.30700
H277        H  0.04137233  0.15710797  0.63101570     0.13500
H278        H  0.46077597  0.14495529  0.63991577     0.14100
C279        C  0.48117300  0.15635243  0.85842487    -0.15500
C280        C  0.50971445  0.13445693  0.87168351    -0.30700
H281        H  0.95114445  0.15263793  0.86850196     0.13500
H282        H  0.53668655  0.13658490  0.85789656     0.14100
C283        C  0.47979764  0.34202337  0.64371891    -0.15500
C284        C  0.50918725  0.35638288  0.62703615    -0.30700
H285        H  0.45214234  0.35092681  0.63398450     0.13500
H286        H  0.04165640  0.34118926  0.62680379     0.14100
C287        C  0.51145320  0.35880783  0.87276874    -0.15500
C288        C  0.48114693  0.34750023  0.85500599    -0.30700
H289        H  0.03220161  0.35588004  0.85533314     0.13500
H290        H  0.45411304  0.36000472  0.86298179     0.14100
N291        N  0.42260983  0.51893353  0.45329186    -0.05200
N292        N  0.40140405  0.53308791  0.42399797    -0.57300
N293        N  0.42462305  0.98215177  0.04564615    -0.04800
N294        N  0.40278113  0.97079039  0.07463454    -0.59400
N295        N  0.42336483  0.52136576  0.04488935    -0.04400
N296        N  0.40160363  0.53501217  0.07410693    -0.57300
N297        N  0.42510914  0.98479781  0.45135883    -0.04100
N298        N  0.40474548  0.97226302  0.42218433    -0.59800
C299        C  0.39197431  0.00299556  0.40210807     0.97000
C300        C  0.38900964  0.50496427  0.09203105     0.96800
N301        N  0.01955257  0.91927398  0.04410083    -0.05400
N302        N  0.03286368  0.89629281  0.07227264    -0.57900
N303        N  0.48757541  0.92116526  0.45478350    -0.03500
N304        N  0.47590109  0.90048102  0.42541673    -0.59100
N305        N  0.02472362  0.92301025  0.44883570    -0.05400
N306        N  0.03748752  0.90259016  0.41800017    -0.58100
N307        N  0.48905913  0.91777009  0.04636494    -0.03100
N308        N  0.47763393  0.89688415  0.07622887    -0.59200
Mn309      Mn  0.45667401  0.94950112  0.99956675     1.18400
C310        C  0.00259939  0.88456029  0.09061979     0.99100
C311        C  0.50727719  0.88581164  0.40796538     0.99800
N312        N  0.48176532  0.57934405  0.04866547    -0.05400
N313        N  0.46610915  0.59960121  0.07789822    -0.61700
N314        N  0.01789040  0.58374564  0.46227390    -0.04200
N315        N  0.03111234  0.60504181  0.43409817    -0.62400
N316        N  0.48161389  0.57867258  0.45640379    -0.04900
N317        N  0.46986121  0.59971159  0.42554981    -0.62000
N318        N  0.01441084  0.57647352  0.05442454    -0.03800
N319        N  0.02449724  0.59608264  0.08566368    -0.62700
Mn320      Mn  0.44960449  0.54823547  0.50151935     1.10700
C321        C  0.99203477  0.60823054  0.10312147     1.00300
C322        C  0.50134894  0.61074040  0.40863542     1.00400
N323        N  0.08470582  0.98239817  0.45570390    -0.04900
N324        N  0.10620691  0.97188855  0.42479382    -0.60300
N325        N  0.07936728  0.51234325  0.05159324    -0.04200
N326        N  0.09997865  0.52170147  0.08229494    -0.57000
N327        N  0.07964640  0.97564348  0.04858759    -0.05500
N328        N  0.10075442  0.95899137  0.07643145    -0.59900
N329        N  0.08290430  0.52322810  0.45945358    -0.04500
N330        N  0.10337658  0.53810231  0.43143212    -0.57000
Mn331      Mn  0.05106763  0.94936513  0.99941066     1.20200
Mn332      Mn  0.04964763  0.55141051  0.50780558     1.10100
Cl333      Cl  0.00079622  0.49971704  0.00262814    -0.85000
C334        C  0.11851845  0.00375694  0.41064839     0.97300
C335        C  0.11350623  0.48892094  0.09772171     0.97100
N336        N  0.48659734  0.80683594  0.25218265    -0.35700
N337        N  0.49772262  0.74850539  0.19151139    -0.56200
N338        N  0.49686463  0.69331168  0.25527622    -0.35600
N339        N  0.48168888  0.75184974  0.31539946    -0.56200
C340        C  0.47851081  0.82625241  0.21788678     0.27900
C341        C  0.47577056  0.82832815  0.28407630     0.27900
C342        C  0.49812149  0.67147498  0.22206210     0.27900
C343        C  0.48539312  0.67326467  0.28704976     0.27900
C344        C  0.49987578  0.77826381  0.16716695     0.36500
C345        C  0.51010457  0.71884659  0.16952841     0.36600
C346        C  0.48354168  0.78173240  0.33931694     0.36500
C347        C  0.48302925  0.72223740  0.34035572     0.36600
C348        C  0.46262527  0.86075474  0.22822139    -0.20900
C349        C  0.46116686  0.86214544  0.26999901    -0.20900
C350        C  0.48812609  0.63677115  0.23311204    -0.20900
C351        C  0.47981668  0.63799718  0.27396793    -0.20900
C352        C  0.51316092  0.76732582  0.12919249    -0.22000
C353        C  0.51991625  0.72980419  0.13080390    -0.22000
C354        C  0.48559846  0.77104791  0.37974465    -0.22000
C355        C  0.48504724  0.73342341  0.38041560    -0.22000
C356        C  0.48737260  0.81472151  0.17775643    -0.17300
C357        C  0.48025059  0.81864864  0.32546378    -0.17300
C358        C  0.48129131  0.68530966  0.32784841    -0.17300
C359        C  0.50906693  0.68181027  0.18240880    -0.17300
H360        H  0.45359204  0.88293416  0.20784048     0.15600
H361        H  0.45050053  0.88538900  0.28791353     0.15600
H362        H  0.48680550  0.61294987  0.21387715     0.15600
H363        H  0.47097077  0.61532458  0.29204345     0.15600
H364        H  0.51706323  0.78436418  0.10274232     0.13900
H365        H  0.52978158  0.71249226  0.10584479     0.13900
H366        H  0.48651356  0.78852908  0.40612034     0.13900
H367        H  0.48604930  0.71626804  0.40737021     0.13900
H368        H  0.50074456  0.78119720  0.25394807     0.27100
H369        H  0.50503359  0.71988856  0.25653057     0.27100
N370        N  0.31089972  0.97956308  0.24944021    -0.35700
N371        N  0.25496528  0.97855453  0.31295742    -0.56200
N372        N  0.19721371  0.99202378  0.25184518    -0.35600
N373        N  0.25312598  0.98894388  0.18789070    -0.56200
C374        C  0.33268054  0.97172077  0.28189916     0.27900
C375        C  0.33147761  0.97301087  0.21555623     0.27900
C376        C  0.17645594  0.98334549  0.28425933     0.27900
C377        C  0.17551719  0.99238323  0.21865448     0.27900
C378        C  0.28495004  0.97870934  0.33693568     0.36500
C379        C  0.22521790  0.98104216  0.33783201     0.36600
C380        C  0.28299143  0.98958817  0.16334905     0.36500
C381        C  0.22351678  0.99974971  0.16511113     0.36600
C382        C  0.36789696  0.96059601  0.26852041    -0.20900
C383        C  0.36710699  0.96119718  0.22671965    -0.20900
C384        C  0.14083618  0.97877928  0.27157795    -0.20900
C385        C  0.14018025  0.98470488  0.23029351    -0.20900
C386        C  0.27416113  0.98076922  0.37737008    -0.22000
C387        C  0.23640790  0.98201168  0.37795407    -0.22000
C388        C  0.27211139  0.00012341  0.12443619    -0.22000
C389        C  0.23456745  0.00686008  0.12565566    -0.22000
C390        C  0.32200805  0.97525315  0.32324093    -0.17300
C391        C  0.31977255  0.97936623  0.17496037    -0.17300
C392        C  0.18642162  0.00052367  0.17839315    -0.17300
C393        C  0.18813750  0.98093478  0.32519723    -0.17300
H394        H  0.39170459  0.95274969  0.28693206     0.15600
H395        H  0.39035013  0.95421278  0.20686825     0.15600
H396        H  0.11757254  0.97215106  0.29017045     0.15600
H397        H  0.11630315  0.98338469  0.21116026     0.15600
H398        H  0.29165383  0.98085217  0.40378907     0.13900
H399        H  0.21921824  0.98341890  0.40492382     0.13900
H400        H  0.28926277  0.00254842  0.09773957     0.13900
H401        H  0.21732355  0.01519621  0.10011988     0.13900
H402        H  0.28394789  0.99045541  0.25044703     0.27100
H403        H  0.22421763  0.99903419  0.25253859     0.27100
C404        C  0.15733167  0.00835432  0.14754052    -0.15500
C405        C  0.14042882  0.98091735  0.13050272    -0.30700
H406        H  0.15080799  0.53942795  0.13742363     0.13500
H407        H  0.14749012  0.95277843  0.14027388     0.14100
C408        C  0.14510853  0.00671464  0.37709988    -0.15500
C409        C  0.15960977  0.97718541  0.35701443    -0.30700
H410        H  0.15120021  0.53948308  0.36703119     0.13500
H411        H  0.15117615  0.94989277  0.36412701     0.14100
C412        C  0.36064683  0.00505747  0.12434677    -0.15500
C413        C  0.34825394  0.97536222  0.14252881    -0.30700
H414        H  0.34962824  0.03229075  0.13349394     0.13500
H415        H  0.35565780  0.45023130  0.13028606     0.14100
C416        C  0.35139571  0.97311206  0.35443459    -0.15500
C417        C  0.36547683  0.00371152  0.36828643    -0.30700
H418        H  0.35996979  0.94636910  0.36723530     0.13500
H419        H  0.35091344  0.53270710  0.36330811     0.14100
C420        C  0.51703863  0.65265316  0.15137720    -0.15500
C421        C  0.48948889  0.63650841  0.13351656    -0.30700
H422        H  0.04009181  0.65319477  0.13593239     0.13500
H423        H  0.46139554  0.64360274  0.14357518     0.14100
C424        C  0.47547853  0.65743870  0.35994436    -0.15500
C425        C  0.50388952  0.63540743  0.37329183    -0.30700
H426        H  0.94631680  0.65275050  0.36878090     0.13500
H427        H  0.53084877  0.63742025  0.35942509     0.14100
C428        C  0.48280063  0.84265332  0.14485271    -0.15500
C429        C  0.51218651  0.85638182  0.12739767    -0.30700
H430        H  0.45515589  0.85244289  0.13591743     0.13500
H431        H  0.03194278  0.84601930  0.13288353     0.14100
C432        C  0.50868906  0.85820605  0.37515243    -0.15500
C433        C  0.47829281  0.84861033  0.35609122    -0.30700
H434        H  0.03293674  0.85761202  0.35090783     0.13500
H435        H  0.45162575  0.86253776  0.36296682     0.14100
N436        N  0.42636271  0.52297789  0.95161279    -0.05200
N437        N  0.40583698  0.53745188  0.92192279    -0.57300
N438        N  0.42202540  0.98710132  0.54503267    -0.04800
N439        N  0.40078880  0.97658483  0.57505162    -0.59400
N440        N  0.42007387  0.51604452  0.54700754    -0.04400
N441        N  0.39873771  0.52779375  0.57768591    -0.57300
N442        N  0.42675860  0.98253825  0.95225285    -0.04100
N443        N  0.40618600  0.97097655  0.92272558    -0.59800
C444        C  0.39327732  0.00240905  0.90402275     0.97000
C445        C  0.38849253  0.49631185  0.59518731     0.96800
N446        N  0.02479053  0.91579436  0.54212871    -0.05400
N447        N  0.03850723  0.89237326  0.56972124    -0.57900
N448        N  0.48950563  0.91890464  0.95293629    -0.03500
N449        N  0.47731463  0.89812315  0.92399531    -0.59100
N450        N  0.02038860  0.92363954  0.95079304    -0.05400
N451        N  0.03324302  0.90230910  0.92079725    -0.58100
N452        N  0.48523380  0.92205797  0.54841530    -0.03100
N453        N  0.47299063  0.90153328  0.57813876    -0.59200
Mn454      Mn  0.45416464  0.95301689  0.50011642     1.18400
C455        C  0.00843529  0.88024987  0.58818394     0.99100
C456        C  0.50834136  0.88417643  0.90527171     0.99800
N457        N  0.47762801  0.57563389  0.54997126    -0.05400
N458        N  0.46187214  0.59548949  0.57945252    -0.61700
N459        N  0.01704222  0.58078712  0.96080951    -0.04200
N460        N  0.03015668  0.60179257  0.93218576    -0.62400
N461        N  0.48627150  0.58138706  0.95527669    -0.04900
N462        N  0.47470579  0.60243855  0.92452032    -0.62000
N463        N  0.01439402  0.57861090  0.55542537    -0.03800
N464        N  0.02385614  0.59818451  0.58691714    -0.62700
Mn465      Mn  0.45373416  0.55203444  0.99986334     1.10700
C466        C  0.99113887  0.60927710  0.60442570     1.00300
C467        C  0.50621867  0.61379903  0.90822093     1.00400
N468        N  0.08159696  0.98186775  0.95561546    -0.04900
N469        N  0.10279217  0.97039883  0.92477879    -0.60300
N470        N  0.08058732  0.51678056  0.55266288    -0.04200
N471        N  0.10033341  0.52706713  0.58355277    -0.57000
N472        N  0.08335948  0.97407626  0.54899534    -0.05500
N473        N  0.10396227  0.95762942  0.57750733    -0.59900
N474        N  0.07980195  0.51830322  0.95800292    -0.04500
N475        N  0.09920638  0.53279385  0.92884138    -0.57000
Mn476      Mn  0.05528157  0.94805302  0.49851977     1.20200
Mn477      Mn  0.04846967  0.54775621  0.00665252     1.10100
Cl478      Cl  0.00364901  0.50211429  0.50241048    -0.85000
C479        C  0.11484371  0.00189623  0.90922392     0.97300
C480        C  0.11499434  0.49486210  0.59911362     0.97100
N481        N  0.47963485  0.80655202  0.75088340    -0.35700
N482        N  0.49170485  0.75032796  0.68841594    -0.56200
N483        N  0.48859625  0.69304043  0.75033760    -0.35600
N484        N  0.48146634  0.74948289  0.81323867    -0.56200
C485        C  0.48394697  0.82801517  0.71785983     0.27900
C486        C  0.48368080  0.82744432  0.78419392     0.27900
C487        C  0.50151001  0.67239707  0.71858610     0.27900
C488        C  0.49187572  0.67182465  0.78407395     0.27900
C489        C  0.48388898  0.77979063  0.66407866     0.36500
C490        C  0.49427993  0.72044640  0.66414859     0.36600
C491        C  0.47457668  0.77934694  0.83699906     0.36500
C492        C  0.47470906  0.71986097  0.83618214     0.36600
C493        C  0.49008678  0.86335041  0.73028113    -0.20900
C494        C  0.49018869  0.86292266  0.77208162    -0.20900
C495        C  0.51260655  0.63731776  0.73227569    -0.20900
C496        C  0.50626778  0.63686305  0.77351976    -0.20900
C497        C  0.48201258  0.76857281  0.62400553    -0.22000
C498        C  0.48884144  0.73104140  0.62402864    -0.22000
C499        C  0.46409752  0.76858748  0.87556301    -0.22000
C500        C  0.46394818  0.73094806  0.87498327    -0.22000
C501        C  0.48101023  0.81689090  0.67693352    -0.17300
C502        C  0.47933671  0.81603848  0.82506897    -0.17300
C503        C  0.48101670  0.68283477  0.82381134    -0.17300
C504        C  0.50215970  0.68376661  0.67739483    -0.17300
H505        H  0.49399704  0.88710393  0.71132507     0.15600
H506        H  0.49389215  0.88635504  0.79127189     0.15600
H507        H  0.52382767  0.61428650  0.71438438     0.15600
H508        H  0.51177058  0.61339322  0.79336222     0.15600
H509        H  0.47686156  0.78568336  0.59740190     0.13900
H510        H  0.48947014  0.71354557  0.59754098     0.13900
H511        H  0.45735117  0.78599880  0.90147064     0.13900
H512        H  0.45738540  0.71369306  0.90049588     0.13900
H513        H  0.47234318  0.77969997  0.75043177     0.27100
H514        H  0.47654599  0.71955430  0.74900137     0.27100
N515        N  0.31114199  0.98583661  0.75140850    -0.35700
N516        N  0.25627543  0.97982024  0.81572158    -0.56200
N517        N  0.19749122  0.99268824  0.75610794    -0.35600
N518        N  0.25246339  0.99441924  0.69136175    -0.56200
C519        C  0.33282596  0.97481120  0.78301266     0.27900
C520        C  0.33073605  0.97869369  0.71689667     0.27900
C521        C  0.17745969  0.98312389  0.78875867     0.27900
C522        C  0.17527573  0.99312730  0.72331985     0.27900
C523        C  0.28645181  0.98176004  0.83901541     0.36500
C524        C  0.22697689  0.98198535  0.84121723     0.36600
C525        C  0.28179854  0.99735866  0.66642996     0.36500
C526        C  0.22208459  0.00418785  0.66934990     0.36600
C527        C  0.36691662  0.96118806  0.76856137    -0.20900
C528        C  0.36555502  0.96345350  0.72685612    -0.20900
C529        C  0.14180977  0.97794523  0.77664770    -0.20900
C530        C  0.14036907  0.98448015  0.73547175    -0.20900
C531        C  0.27629933  0.98483471  0.87959674    -0.22000
C532        C  0.23863969  0.98479736  0.88100284    -0.22000
C533        C  0.26991983  0.00856166  0.62811687    -0.22000
C534        C  0.23219487  0.01310083  0.63003315    -0.22000
C535        C  0.32314521  0.97791785  0.82456402    -0.17300
C536        C  0.31884836  0.98718639  0.67682447    -0.17300
C537        C  0.18528560  0.00219967  0.68299194    -0.17300
C538        C  0.18989477  0.98031353  0.82942491    -0.17300
H539        H  0.39030899  0.95056242  0.78621809     0.15600
H540        H  0.38786158  0.95510360  0.70626277     0.15600
H541        H  0.11904815  0.97047105  0.79553400     0.15600
H542        H  0.11628378  0.98293153  0.71670030     0.15600
H543        H  0.29416173  0.98628100  0.90557415     0.13900
H544        H  0.22178423  0.98664084  0.90822620     0.13900
H545        H  0.28653898  0.01248625  0.60129753     0.13900
H546        H  0.21424147  0.02109752  0.60497522     0.13900
H547        H  0.28513700  0.99923668  0.75355881     0.27100
H548        H  0.22436417  0.00006861  0.75642602     0.27100
C549        C  0.15563670  0.00865178  0.65243674    -0.15500
C550        C  0.14110335  0.98042370  0.63390248    -0.30700
H551        H  0.14834699  0.54800017  0.63818150     0.13500
H552        H  0.14987618  0.95243689  0.64284744     0.14100
C553        C  0.14017989  0.00429716  0.87451179    -0.15500
C554        C  0.16227065  0.97558391  0.86200340    -0.30700
H555        H  0.14085651  0.53412612  0.86009179     0.13500
H556        H  0.16230257  0.94927572  0.87766376     0.14100
C557        C  0.36009224  0.01213830  0.62537484    -0.15500
C558        C  0.34666199  0.98285899  0.64353985    -0.30700
H559        H  0.35041582  0.03961050  0.63510725     0.13500
H560        H  0.34887222  0.55066443  0.63577862     0.14100
C561        C  0.35299649  0.97440441  0.85497055    -0.15500
C562        C  0.36672414  0.00444654  0.87044018    -0.30700
H563        H  0.36211388  0.94713768  0.86594791     0.13500
H564        H  0.36183173  0.53791418  0.85506062     0.14100
C565        C  0.51090324  0.65541791  0.64587334    -0.15500
C566        C  0.48523061  0.63325130  0.63423385    -0.30700
H567        H  0.03860664  0.65435489  0.63710409     0.13500
H568        H  0.45827164  0.63575007  0.64875345     0.14100
C569        C  0.47809147  0.65408780  0.85529788    -0.15500
C570        C  0.50825664  0.63931478  0.87379302    -0.30700
H571        H  0.94427908  0.65450375  0.87319694     0.13500
H572        H  0.53521470  0.64714244  0.86413415     0.14100
C573        C  0.47673530  0.84577586  0.64513422    -0.15500
C574        C  0.50610889  0.86200197  0.63113001    -0.30700
H575        H  0.44995546  0.85136491  0.63123879     0.13500
H576        H  0.03660391  0.83628714  0.62515639     0.14100
C577        C  0.50907819  0.85762533  0.87152322    -0.15500
C578        C  0.47816142  0.84438083  0.85738744    -0.30700
H579        H  0.02919696  0.85664509  0.85475469     0.13500
H580        H  0.45164098  0.85275099  0.87099722     0.14100
N581        N  0.92540739  0.02407656  0.45606168    -0.05200
N582        N  0.90434632  0.03943398  0.42726250    -0.57300
N583        N  0.92105899  0.48270337  0.04823978    -0.04800
N584        N  0.89941660  0.47054251  0.07705838    -0.59400
N585        N  0.92029028  0.02383864  0.04641008    -0.04400
N586        N  0.89879532  0.03744662  0.07587910    -0.57300
N587        N  0.92584083  0.48657803  0.45323231    -0.04100
N588        N  0.90513136  0.47555734  0.42343921    -0.59800
C589        C  0.89037877  0.50738378  0.40699140     0.97000
C590        C  0.88623510  0.00736099  0.09377968     0.96800
N591        N  0.52447287  0.42009810  0.04509431    -0.05400
N592        N  0.53789173  0.39897891  0.07483169    -0.57900
N593        N  0.99150026  0.42572467  0.45068255    -0.03500
N594        N  0.98009897  0.40518831  0.42115396    -0.59100
N595        N  0.52440547  0.41919415  0.45241555    -0.05400
N596        N  0.53850495  0.39803765  0.42290805    -0.58100
N597        N  0.98610939  0.41895626  0.04615013    -0.03100
N598        N  0.97520491  0.39750202  0.07580407    -0.59200
Mn599      Mn  0.95295428  0.45163082  0.00063001     1.18400
C600        C  0.50766596  0.38697055  0.09293464     0.99100
C601        C  0.01152294  0.39239431  0.40243935     0.99800
N602        N  0.98009292  0.08039386  0.05157185    -0.05400
N603        N  0.96491118  0.10088044  0.08090937    -0.61700
N604        N  0.52195377  0.07773627  0.45353040    -0.04200
N605        N  0.53642885  0.09689565  0.42416131    -0.62400
N606        N  0.98555397  0.08290033  0.46206245    -0.04900
N607        N  0.97411252  0.10490642  0.43186551    -0.62000
N608        N  0.51784492  0.07517254  0.05046167    -0.03800
N609        N  0.52751849  0.09593681  0.08093299    -0.62700
Mn610      Mn  0.95326198  0.05118685  0.50568357     1.10700
C611        C  0.49483900  0.10945864  0.09683412     1.00300
C612        C  0.00577200  0.11626599  0.41567860     1.00400
N613        N  0.58292594  0.47912142  0.45661638    -0.04900
N614        N  0.60538590  0.46639744  0.42760132    -0.60300
N615        N  0.58223794  0.01042303  0.05074700    -0.04200
N616        N  0.60292994  0.02084863  0.08079805    -0.57000
N617        N  0.58382599  0.47779737  0.04833643    -0.05500
N618        N  0.60587896  0.46294774  0.07651486    -0.59900
N619        N  0.58416547  0.01406799  0.45751078    -0.04500
N620        N  0.60613920  0.02535180  0.42862556    -0.57000
Mn621      Mn  0.55575544  0.44930252  0.99983362     1.20200
Mn622      Mn  0.55143963  0.04730843  0.50256185     1.10100
Cl623      Cl  0.50476582  0.99707778  0.00076277    -0.85000
C624        C  0.61828394  0.49695693  0.41120730     0.97300
C625        C  0.61745954  0.98870782  0.09669178     0.97100
N626        N  0.98899098  0.30835266  0.25243435    -0.35700
N627        N  0.99754903  0.24930542  0.19260094    -0.56200
N628        N  0.99880101  0.19481718  0.25777191    -0.35600
N629        N  0.98545558  0.25390350  0.31714933    -0.56200
C630        C  0.97997301  0.32749082  0.21817262     0.27900
C631        C  0.97936292  0.33025582  0.28432795     0.27900
C632        C  0.00059327  0.17232318  0.22511109     0.27900
C633        C  0.98931688  0.17477533  0.29046858     0.27900
C634        C  0.99911538  0.27872586  0.16760098     0.36500
C635        C  0.00974215  0.21935911  0.17097659     0.36600
C636        C  0.98692311  0.28422662  0.34039089     0.36500
C637        C  0.98626208  0.22477053  0.34278252     0.36600
C638        C  0.96482077  0.36225397  0.22854944    -0.20900
C639        C  0.96471794  0.36408397  0.27029474    -0.20900
C640        C  0.99304713  0.13717600  0.23742442    -0.20900
C641        C  0.98567917  0.13878719  0.27849998    -0.20900
C642        C  0.01174266  0.26729388  0.12957428    -0.22000
C643        C  0.01876777  0.22981900  0.13181483    -0.22000
C644        C  0.98823536  0.27435168  0.38109927    -0.22000
C645        C  0.98748195  0.23675873  0.38262859    -0.22000
C646        C  0.98717182  0.31539545  0.17789512    -0.17300
C647        C  0.98427004  0.32086059  0.32570427    -0.17300
C648        C  0.98511724  0.18753308  0.33105245    -0.17300
C649        C  0.00976272  0.18244643  0.18476862    -0.17300
H650        H  0.95526827  0.38425832  0.20819092     0.15600
H651        H  0.95469486  0.38754469  0.28825643     0.15600
H652        H  0.99270874  0.11282334  0.21883655     0.15600
H653        H  0.97871384  0.11590714  0.29743758     0.15600
H654        H  0.01526827  0.28401584  0.10278994     0.13900
H655        H  0.02849867  0.21220472  0.10705496     0.13900
H656        H  0.98885844  0.29238309  0.40705695     0.13900
H657        H  0.98796419  0.22015959  0.40999604     0.13900
H658        H  0.00278251  0.28253618  0.25417618     0.27100
H659        H  0.00514046  0.22200230  0.25788908     0.27100
N660        N  0.80741180  0.48573623  0.25208004    -0.35700
N661        N  0.75349416  0.50330957  0.31618111    -0.56200
N662        N  0.69613124  0.51806814  0.25479814    -0.35600
N663        N  0.74959141  0.49614994  0.19093941    -0.56200
C664        C  0.82806751  0.47611893  0.28498599     0.27900
C665        C  0.82610186  0.47308475  0.21874202     0.27900
C666        C  0.67514199  0.51917671  0.28889794     0.27900
C667        C  0.67326666  0.51610203  0.22278724     0.27900
C668        C  0.78398850  0.49924690  0.33947827     0.36500
C669        C  0.72529572  0.51494798  0.34095644     0.36600
C670        C  0.77916980  0.49179836  0.16589437     0.36500
C671        C  0.72051345  0.50716851  0.16745385     0.36600
C672        C  0.86052786  0.45720812  0.27228798    -0.20900
C673        C  0.85928764  0.45531411  0.23055775    -0.20900
C674        C  0.63834398  0.51890323  0.27829043    -0.20900
C675        C  0.63717633  0.51694674  0.23665508    -0.20900
C676        C  0.77484844  0.50777738  0.37948525    -0.22000
C677        C  0.73780269  0.51772329  0.38038602    -0.22000
C678        C  0.76860065  0.49946190  0.12617336    -0.22000
C679        C  0.73153895  0.50923212  0.12718353    -0.22000
C680        C  0.81952665  0.48584195  0.32582854    -0.17300
C681        C  0.81530951  0.47947018  0.17790740    -0.17300
C682        C  0.68379611  0.51398186  0.18135656    -0.17300
C683        C  0.68794754  0.52075641  0.32935780    -0.17300
H684        H  0.88307953  0.44631255  0.29102229     0.15600
H685        H  0.88068075  0.44272943  0.21112642     0.15600
H686        H  0.61468604  0.51974806  0.29842808     0.15600
H687        H  0.61250736  0.51593149  0.21869153     0.15600
H688        H  0.79271266  0.50627706  0.40562541     0.13900
H689        H  0.72180257  0.52556867  0.40718896     0.13900
H690        H  0.78565652  0.49788346  0.09911314     0.13900
H691        H  0.71464656  0.51691109  0.10116489     0.13900
H692        H  0.78307860  0.50216273  0.25207197     0.27100
H693        H  0.72433563  0.51965745  0.25338142     0.27100
C694        C  0.65420764  0.51808916  0.15052519    -0.15500
C695        C  0.64497809  0.48905008  0.12898737    -0.30700
H696        H  0.64209601  0.04174874  0.14452018     0.13500
H697        H  0.65876456  0.46213161  0.13486364     0.14100
C698        C  0.64583181  0.49541676  0.37826853    -0.15500
C699        C  0.65992649  0.52523979  0.36225833    -0.30700
H700        H  0.65503077  0.96406330  0.36559575     0.13500
H701        H  0.65125755  0.55264119  0.37298686     0.14100
C702        C  0.85759152  0.50387251  0.12821389    -0.15500
C703        C  0.84417869  0.47434647  0.14584618    -0.30700
H704        H  0.84722275  0.53114854  0.13796792     0.13500
H705        H  0.85625662  0.95215597  0.13511182     0.14100
C706        C  0.84961175  0.48100382  0.35630242    -0.15500
C707        C  0.86267967  0.51031136  0.37438222    -0.30700
H708        H  0.86110767  0.45341141  0.36337400     0.13500
H709        H  0.85477321  0.04189257  0.36524520     0.14100
C710        C  0.01720759  0.15292142  0.15404045    -0.15500
C711        C  0.98928020  0.13680985  0.13684869    -0.30700
H712        H  0.54496530  0.14927472  0.13417818     0.13500
H713        H  0.96136132  0.14424068  0.14727223     0.14100
C714        C  0.97965368  0.16005953  0.36373417    -0.15500
C715        C  0.00871698  0.14154475  0.38082663    -0.30700
H716        H  0.45594174  0.16050044  0.37237372     0.13500
H717        H  0.03616655  0.14618963  0.36967817     0.14100
C718        C  0.98176152  0.34298476  0.14463199    -0.15500
C719        C  0.01070270  0.35685779  0.12631623    -0.30700
H720        H  0.95389598  0.35255633  0.13629655     0.13500
H721        H  0.53643789  0.35410477  0.14067309     0.14100
C722        C  0.01302796  0.36502203  0.36955971    -0.15500
C723        C  0.98236224  0.35102859  0.35577921    -0.30700
H724        H  0.53741917  0.34640186  0.36266311     0.13500
H725        H  0.95547512  0.36055608  0.36765130     0.14100
N726        N  0.92354069  0.02648482  0.95313525    -0.05200
N727        N  0.90347910  0.04113831  0.92311126    -0.57300
N728        N  0.92538901  0.48162239  0.54685867    -0.04800
N729        N  0.90659491  0.46709571  0.57652820    -0.59400
N730        N  0.92335008  0.01808774  0.54942749    -0.04400
N731        N  0.90181207  0.02965762  0.57990786    -0.57300
N732        N  0.92227866  0.48574704  0.95457843    -0.04100
N733        N  0.90203004  0.47494077  0.92432634    -0.59800
C734        C  0.88902198  0.50686742  0.90664984     0.97000
C735        C  0.89059406  0.99819336  0.59631693     0.96800
N736        N  0.52286122  0.41668672  0.54567397    -0.05400
N737        N  0.53659045  0.39537256  0.57509384    -0.57900
N738        N  0.98566200  0.42265976  0.95263098    -0.03500
N739        N  0.97354905  0.40263461  0.92296768    -0.59100
N740        N  0.52596261  0.42134985  0.95189741    -0.05400
N741        N  0.53974256  0.39890978  0.92332923    -0.58100
N742        N  0.99099858  0.42029381  0.54396601    -0.03100
N743        N  0.98000275  0.39774109  0.57244647    -0.59200
Mn744      Mn  0.95771226  0.45281369  0.49869791     1.18400
C745        C  0.50659526  0.38279163  0.59313226     0.99100
C746        C  0.00461631  0.38984600  0.90344905     0.99800
N747        N  0.98213574  0.07602716  0.55586461    -0.05400
N748        N  0.96720179  0.09517848  0.58640614    -0.61700
N749        N  0.52249496  0.07623964  0.95673954    -0.04200
N750        N  0.53661540  0.09561683  0.92734023    -0.62400
N751        N  0.98467357  0.08435906  0.95820773    -0.04900
N752        N  0.97365597  0.10666571  0.92821438    -0.62000
N753        N  0.51650398  0.07929168  0.54731688    -0.03800
N754        N  0.52626340  0.09901535  0.57861430    -0.62700
Mn755      Mn  0.95137782  0.05458895  0.00200228     1.10700
C756        C  0.49365596  0.11241428  0.59475910     1.00300
C757        C  0.00547846  0.11805979  0.91266779     1.00400
N758        N  0.58561068  0.48122855  0.95511672    -0.04900
N759        N  0.60712956  0.46935393  0.92472330    -0.60300
N760        N  0.57994963  0.01463911  0.55103602    -0.04200
N761        N  0.59946799  0.02602566  0.58162323    -0.57000
N762        N  0.58066714  0.47591966  0.54972265    -0.05500
N763        N  0.60147793  0.46120455  0.57905118    -0.59900
N764        N  0.58486597  0.01379456  0.95743687    -0.04500
N765        N  0.60530682  0.02762616  0.92880819    -0.57000
Mn766      Mn  0.55343793  0.44702895  0.50093234     1.20200
Mn767      Mn  0.55257347  0.04464143  0.00436298     1.10100
Cl768      Cl  0.50276779  0.00020299  0.50050266    -0.85000
C769        C  0.61902817  0.50067068  0.90859223     0.97300
C770        C  0.61157409  0.99445492  0.60067205     0.97100
N771        N  0.98280530  0.30941946  0.75009807    -0.35700
N772        N  0.00029295  0.25188454  0.68998553    -0.56200
N773        N  0.99298531  0.19581584  0.75326296    -0.35600
N774        N  0.98120216  0.25363681  0.81399507    -0.56200
C775        C  0.98945802  0.33019405  0.71710494     0.27900
C776        C  0.98439639  0.33109773  0.78319312     0.27900
C777        C  0.00656106  0.17428393  0.72250575     0.27900
C778        C  0.99450887  0.17524887  0.78763856     0.27900
C779        C  0.99381587  0.28085439  0.66450318     0.36500
C780        C  0.00290918  0.22136637  0.66663118     0.36600
C781        C  0.97246552  0.28401613  0.83640903     0.36500
C782        C  0.97435928  0.22438941  0.83754161     0.36600
C783        C  0.99465912  0.36580424  0.72918798    -0.20900
C784        C  0.99162946  0.36635849  0.77085863    -0.20900
C785        C  0.01640431  0.13933763  0.73745673    -0.20900
C786        C  0.00858314  0.13986759  0.77841527    -0.20900
C787        C  0.99285749  0.26869284  0.62474128    -0.22000
C788        C  0.99885293  0.23110730  0.62605953    -0.22000
C789        C  0.96054951  0.27397856  0.87471093    -0.22000
C790        C  0.96156135  0.23626758  0.87535637    -0.22000
C791        C  0.98982734  0.31826091  0.67630764    -0.17300
C792        C  0.97748074  0.32052773  0.82389831    -0.17300
C793        C  0.98226402  0.18711503  0.82673983    -0.17300
C794        C  0.00888970  0.18473779  0.68104613    -0.17300
H795        H  0.00016180  0.38899929  0.70998807     0.15600
H796        H  0.99391126  0.39028056  0.78972441     0.15600
H797        H  0.02781623  0.11574274  0.72059583     0.15600
H798        H  0.01281300  0.11670275  0.79893846     0.15600
H799        H  0.98829267  0.28513833  0.59754611     0.13900
H800        H  0.99949118  0.21298085  0.60009899     0.13900
H801        H  0.95231079  0.29188990  0.89976806     0.13900
H802        H  0.95444037  0.21951811  0.90107784     0.13900
H803        H  0.97574280  0.28248925  0.74962638     0.27100
H804        H  0.98166433  0.22250551  0.75061897     0.27100
N805        N  0.80943991  0.49881567  0.75053487    -0.35700
N806        N  0.75446039  0.48250409  0.81170499    -0.56200
N807        N  0.69652062  0.49124658  0.75022990    -0.35600
N808        N  0.75107823  0.51217977  0.69022814    -0.56200
C809        C  0.83091136  0.49753227  0.78398678     0.27900
C810        C  0.82937948  0.51143587  0.71928658     0.27900
C811        C  0.67568733  0.48899642  0.78424081     0.27900
C812        C  0.67400341  0.50373176  0.71985989     0.27900
C813        C  0.78504027  0.47581058  0.83438347     0.36500
C814        C  0.72581933  0.47203111  0.83422681     0.36600
C815        C  0.78062770  0.51518400  0.66563788     0.36500
C816        C  0.72135668  0.51238024  0.66583179     0.36600
C817        C  0.86526579  0.50906706  0.77356213    -0.20900
C818        C  0.86426542  0.51784215  0.73285913    -0.20900
C819        C  0.63925377  0.49931845  0.77500915    -0.20900
C820        C  0.63822898  0.50863842  0.73448854    -0.20900
C821        C  0.77562863  0.46137908  0.87179894    -0.22000
C822        C  0.73821709  0.45896988  0.87168093    -0.22000
C823        C  0.76948405  0.51788145  0.62548124    -0.22000
C824        C  0.73201333  0.51614537  0.62561204    -0.22000
C825        C  0.82099151  0.48472464  0.82314340    -0.17300
C826        C  0.81754874  0.51616513  0.67854422    -0.17300
C827        C  0.68454676  0.51015759  0.67907816    -0.17300
C828        C  0.68831761  0.47708616  0.82314626    -0.17300
H829        H  0.88892278  0.51060828  0.79297161     0.15600
H830        H  0.88679844  0.52765232  0.71523090     0.15600
H831        H  0.61568899  0.50010070  0.79525735     0.15600
H832        H  0.61387281  0.51813643  0.71776293     0.15600
H833        H  0.79368603  0.45390990  0.89692288     0.13900
H834        H  0.72194053  0.44936414  0.89668280     0.13900
H835        H  0.78656050  0.52073483  0.59877332     0.13900
H836        H  0.71463799  0.51738509  0.59904556     0.13900
H837        H  0.78323639  0.49006436  0.74858071     0.27100
H838        H  0.72423912  0.48337761  0.74751396     0.27100
C839        C  0.65521530  0.51583452  0.64805942    -0.15500
C840        C  0.63818560  0.48721063  0.63374183    -0.30700
H841        H  0.65342090  0.04580946  0.63070492     0.13500
H842        H  0.64487003  0.45994766  0.64633320     0.14100
C843        C  0.64461077  0.50266868  0.87404425    -0.15500
C844        C  0.66056895  0.47281341  0.85575423    -0.30700
H845        H  0.65070760  0.02839647  0.86396236     0.13500
H846        H  0.65554875  0.44538380  0.86649459     0.14100
C847        C  0.86654178  0.49342798  0.63185666    -0.15500
C848        C  0.84575165  0.52211600  0.64684552    -0.30700
H849        H  0.86365964  0.46614951  0.64444455     0.13500
H850        H  0.85020495  0.05324093  0.63442455     0.14100
C851        C  0.84984473  0.48048229  0.85494932    -0.15500
C852        C  0.86338269  0.50992028  0.87212399    -0.30700
H853        H  0.85731645  0.45309136  0.86673954     0.13500
H854        H  0.85802581  0.04145361  0.85693409     0.14100
C855        C  0.01718321  0.15548494  0.65026687    -0.15500
C856        C  0.99246516  0.13108328  0.64194041    -0.30700
H857        H  0.54480522  0.14639243  0.63783879     0.13500
H858        H  0.96669646  0.13209300  0.65888427     0.14100
C859        C  0.97860861  0.15901365  0.85906319    -0.15500
C860        C  0.00825728  0.14413171  0.87861070    -0.30700
H861        H  0.45459153  0.15643173  0.87360473     0.13500
H862        H  0.03546830  0.15172127  0.86959660     0.14100
C863        C  0.98597999  0.34696746  0.64413507    -0.15500
C864        C  0.01484219  0.35531149  0.62132895    -0.30700
H865        H  0.95948949  0.36228544  0.64062247     0.13500
H866        H  0.53650339  0.34742947  0.63789790     0.14100
C867        C  0.00567827  0.36406493  0.86907111    -0.15500
C868        C  0.97526967  0.34932362  0.85573047    -0.30700
H869        H  0.53833845  0.34653042  0.86380668     0.13500
H870        H  0.94886435  0.35601571  0.87044536     0.14100
N871        N  0.92378236  0.52272666  0.45499625    -0.05200
N872        N  0.90163186  0.53701914  0.42659741    -0.57300
N873        N  0.92092399  0.98770486  0.04617879    -0.04800
N874        N  0.89966173  0.97596855  0.07548733    -0.59400
N875        N  0.91976847  0.51887229  0.04855954    -0.04400
N876        N  0.89749529  0.53205229  0.07754455    -0.57300
N877        N  0.92609703  0.98799151  0.45385098    -0.04100
N878        N  0.90562488  0.97808019  0.42338410    -0.59800
C879        C  0.89237278  0.01046164  0.40699933     0.97000
C880        C  0.88512193  0.50175738  0.09515881     0.96800
N881        N  0.52527431  0.91639658  0.04550062    -0.05400
N882        N  0.53920230  0.89492798  0.07469532    -0.57900
N883        N  0.98852709  0.92430432  0.44979520    -0.03500
N884        N  0.97595461  0.90496271  0.41981950    -0.59100
N885        N  0.52378918  0.91944216  0.45541560    -0.05400
N886        N  0.53746495  0.89723244  0.42656022    -0.58100
N887        N  0.98333460  0.92167725  0.04498828    -0.03100
N888        N  0.97125466  0.90007372  0.07385924    -0.59200
Mn889      Mn  0.95205444  0.95555037  0.99909680     1.18400
C890        C  0.50933649  0.88301017  0.09363221     0.99100
C891        C  0.00671034  0.89166977  0.40010536     0.99800
N892        N  0.97828030  0.57716583  0.05266588    -0.05400
N893        N  0.96308064  0.59661515  0.08278807    -0.61700
N894        N  0.51778499  0.57730819  0.45826842    -0.04200
N895        N  0.53137153  0.59688454  0.42873083    -0.62400
N896        N  0.98181945  0.58397152  0.45983392    -0.04900
N897        N  0.96976826  0.60575893  0.42970253    -0.62000
N898        N  0.51784371  0.57825982  0.05131462    -0.03800
N899        N  0.52746495  0.59823997  0.08248297    -0.62700
Mn900      Mn  0.95059011  0.55159559  0.50401445     1.10700
C901        C  0.49474034  0.61118236  0.09879993     1.00300
C902        C  0.00099477  0.61858074  0.41400362     1.00400
N903        N  0.58428223  0.97796918  0.45745641    -0.04900
N904        N  0.60636096  0.96390952  0.42870913    -0.60300
N905        N  0.58197675  0.51389690  0.05083542    -0.04200
N906        N  0.60275496  0.52435911  0.08074964    -0.57000
N907        N  0.58424065  0.97431287  0.04815239    -0.05500
N908        N  0.60616645  0.95945050  0.07645306    -0.59900
N909        N  0.58209591  0.51523317  0.45819904    -0.04500
N910        N  0.60408152  0.52784963  0.43001147    -0.57000
Mn911      Mn  0.55609515  0.94573130  0.99972094     1.20200
Mn912      Mn  0.54894637  0.54598390  0.50529605     1.10100
Cl913      Cl  0.50458664  0.50062719  0.00063169    -0.85000
C914        C  0.61970096  0.99371454  0.41096011     0.97300
C915        C  0.61725623  0.49223893  0.09662049     0.97100
N916        N  0.97726322  0.80865832  0.24910396    -0.35700
N917        N  0.99151313  0.75043887  0.18924330    -0.56200
N918        N  0.98846920  0.69509183  0.25370689    -0.35600
N919        N  0.97896075  0.75357053  0.31399191    -0.56200
C920        C  0.98083851  0.82915449  0.21516097     0.27900
C921        C  0.98061089  0.83085629  0.28152889     0.27900
C922        C  0.00216734  0.67345057  0.22306617     0.27900
C923        C  0.99031591  0.67487618  0.28830485     0.27900
C924        C  0.98441180  0.77896340  0.16334882     0.36500
C925        C  0.99641707  0.71976269  0.16635570     0.36600
C926        C  0.97219362  0.78430849  0.33645942     0.36500
C927        C  0.97207976  0.72469893  0.33814453     0.36600
C928        C  0.98566482  0.86518157  0.22605470    -0.20900
C929        C  0.98579280  0.86620641  0.26784181    -0.20900
C930        C  0.01247883  0.63873011  0.23837911    -0.20900
C931        C  0.00474444  0.63953326  0.27940672    -0.20900
C932        C  0.98524404  0.76635917  0.12367302    -0.22000
C933        C  0.99314348  0.72897607  0.12554997    -0.22000
C934        C  0.96166230  0.77482582  0.37546001    -0.22000
C935        C  0.96127292  0.73717162  0.37642179    -0.22000
C936        C  0.97934818  0.81648222  0.17463368    -0.17300
C937        C  0.97699056  0.82067847  0.32298511    -0.17300
C938        C  0.97821403  0.68715423  0.32734599    -0.17300
C939        C  0.00417256  0.68354569  0.18143211    -0.17300
H940        H  0.98902637  0.88835141  0.20602099     0.15600
H941        H  0.98873719  0.89047748  0.28595713     0.15600
H942        H  0.02402500  0.61509073  0.22167775     0.15600
H943        H  0.00934713  0.61661829  0.30020588     0.15600
H944        H  0.98113438  0.78245735  0.09615834     0.13900
H945        H  0.99583395  0.71065757  0.09976906     0.13900
H946        H  0.95496480  0.79307373  0.40067485     0.13900
H947        H  0.95459948  0.72082414  0.40263451     0.13900
H948        H  0.97123920  0.78141406  0.24980458     0.27100
H949        H  0.97679336  0.72164091  0.25102268     0.27100
N950        N  0.81018743  0.98996741  0.25111130    -0.35700
N951        N  0.75563605  0.00331221  0.31538220    -0.56200
N952        N  0.69741737  0.01411750  0.25416587    -0.35600
N953        N  0.75158063  0.99638345  0.19011837    -0.56200
C954        C  0.83154261  0.98170424  0.28384186     0.27900
C955        C  0.82950355  0.97875864  0.21765737     0.27900
C956        C  0.67660273  0.01402354  0.28834546     0.27900
C957        C  0.67465002  0.01136518  0.22217934     0.27900
C958        C  0.78621615  0.00113573  0.33861189     0.36500
C959        C  0.72690132  0.01293550  0.34026906     0.36600
C960        C  0.78117468  0.99366591  0.16500625     0.36500
C961        C  0.72193697  0.00541048  0.16664205     0.36600
C962        C  0.86515177  0.96534585  0.27089463    -0.20900
C963        C  0.86387214  0.96351969  0.22918301    -0.20900
C964        C  0.63995713  0.01204370  0.27783363    -0.20900
C965        C  0.63874640  0.01035552  0.23616476    -0.20900
C966        C  0.77667248  0.00885800  0.37868548    -0.22000
C967        C  0.73922406  0.01636077  0.37970694    -0.22000
C968        C  0.77010608  0.00030014  0.12525093    -0.22000
C969        C  0.73267064  0.00777626  0.12630886    -0.22000
C970        C  0.82231965  0.99007120  0.32483217    -0.17300
C971        C  0.81790809  0.98390143  0.17694538    -0.17300
C972        C  0.68508939  0.01040652  0.18067681    -0.17300
C973        C  0.68941146  0.01640295  0.32874630    -0.17300
H974        H  0.88839228  0.95598926  0.28947707     0.15600
H975        H  0.88591728  0.95250975  0.20957447     0.15600
H976        H  0.61641313  0.01173483  0.29803378     0.15600
H977        H  0.61417851  0.00840330  0.21824548     0.15600
H978        H  0.79460765  0.00849236  0.40474494     0.13900
H979        H  0.72287981  0.02302155  0.40660253     0.13900
H980        H  0.78713331  0.99964702  0.09816262     0.13900
H981        H  0.71535468  0.01418901  0.10028712     0.13900
H982        H  0.78473069  0.00434544  0.25126279     0.27100
H983        H  0.72534145  0.01720299  0.25273071     0.27100
C984        C  0.65538778  0.01454992  0.14991068    -0.15500
C985        C  0.64504380  0.98538948  0.12933040    -0.30700
H986        H  0.63962271  0.54488463  0.14639974     0.13500
H987        H  0.65792944  0.95824379  0.13605787     0.14100
C988        C  0.64665841  0.99118312  0.37743471    -0.15500
C989        C  0.66146763  0.02074964  0.36166823    -0.30700
H990        H  0.65518750  0.46841431  0.36678110     0.13500
H991        H  0.65407370  0.04808684  0.37341969     0.14100
C992        C  0.85962713  0.00948149  0.12759896    -0.15500
C993        C  0.84642696  0.97962369  0.14464193    -0.30700
H994        H  0.84969581  0.03662547  0.13818802     0.13500
H995        H  0.85464371  0.44672200  0.13760124     0.14100
C996        C  0.85210024  0.98521276  0.35553043    -0.15500
C997        C  0.86535402  0.01431943  0.37378487    -0.30700
H998        H  0.86292342  0.95747664  0.36301130     0.13500
H999        H  0.85147643  0.53771331  0.36596680     0.14100
C1000       C  0.01346953  0.65413569  0.15111099    -0.15500
C1001       C  0.98731658  0.63295249  0.13835935    -0.30700
H1002       H  0.54509986  0.64753652  0.14034626     0.13500
H1003       H  0.96006077  0.63637723  0.15208023     0.14100
C1004       C  0.97386319  0.65924804  0.35981416    -0.15500
C1005       C  0.00328556  0.64460985  0.37982416    -0.30700
H1006       H  0.44890844  0.65779651  0.37518007     0.13500
H1007       H  0.03046018  0.65248449  0.37103037     0.14100
C1008       C  0.97506226  0.84455600  0.14180534    -0.15500
C1009       C  0.00474514  0.85688563  0.12346688    -0.30700
H1010       H  0.94754852  0.85521087  0.13338957     0.13500
H1011       H  0.53957816  0.84685834  0.13755098     0.14100
C1012       C  0.00688632  0.86560902  0.36577481    -0.15500
C1013       C  0.97618767  0.85003771  0.35435005    -0.30700
H1014       H  0.53527173  0.84465647  0.36711710     0.13500
H1015       H  0.95042405  0.85656293  0.37044063     0.14100
N1016       N  0.92168430  0.52189024  0.95535911    -0.05200
N1017       N  0.90096710  0.53639666  0.92583079    -0.57300
N1018       N  0.92513244  0.98196918  0.54729391    -0.04800
N1019       N  0.90488788  0.96819826  0.57622860    -0.59400
N1020       N  0.92197774  0.51775460  0.54857756    -0.04400
N1021       N  0.90058544  0.52858236  0.57952181    -0.57300
N1022       N  0.92326067  0.99040112  0.95273817    -0.04100
N1023       N  0.90313940  0.97975683  0.92240350    -0.59800
C1024       C  0.89108095  0.01165356  0.90416852     0.97000
C1025       C  0.89130245  0.49661678  0.59663475     0.96800
N1026       N  0.52140992  0.92072266  0.54881566    -0.05400
N1027       N  0.53455556  0.89970365  0.57876428    -0.57900
N1028       N  0.98418652  0.92533300  0.95149765    -0.03500
N1029       N  0.97166727  0.90530777  0.92205321    -0.59100
N1030       N  0.52570774  0.91786343  0.95216895    -0.05400
N1031       N  0.53885705  0.89612679  0.92264457    -0.58100
N1032       N  0.98858904  0.91779744  0.54324746    -0.03100
N1033       N  0.97691581  0.89578950  0.57191320    -0.59200
Mn1034     Mn  0.95631246  0.95230461  0.49867984     1.18400
C1035       C  0.50419291  0.88798367  0.59680886     0.99100
C1036       C  0.00252606  0.89120971  0.90307445     0.99800
N1037       N  0.97834475  0.57829368  0.55357321    -0.05400
N1038       N  0.96257626  0.59705738  0.58389684    -0.61700
N1039       N  0.52234612  0.58018994  0.95769910    -0.04200
N1040       N  0.53617314  0.60015541  0.92862713    -0.62400
N1041       N  0.98091801  0.58173011  0.95901853    -0.04900
N1042       N  0.96868545  0.60375009  0.92921398    -0.62000
N1043       N  0.51371659  0.57554698  0.55188124    -0.03800
N1044       N  0.52319876  0.59598481  0.58269408    -0.62700
Mn1045     Mn  0.94945534  0.55067270  0.00366848     1.10700
C1046       C  0.49045149  0.60801762  0.59959231     1.00300
C1047       C  0.99981534  0.61595759  0.91274581     1.00400
N1048       N  0.58594725  0.97773459  0.95463048    -0.04900
N1049       N  0.60757653  0.96626206  0.92406016    -0.60300
N1050       N  0.57906736  0.51205866  0.55168264    -0.04200
N1051       N  0.59907690  0.52265973  0.58224600    -0.57000
N1052       N  0.58046369  0.97850295  0.55102303    -0.05500
N1053       N  0.59991543  0.96459411  0.58185922    -0.59900
N1054       N  0.58467978  0.51730927  0.95758551    -0.04500
N1055       N  0.60524846  0.53076789  0.92878873    -0.57000
Mn1056     Mn  0.55325624  0.94840174  0.50299596     1.20200
Mn1057     Mn  0.55248869  0.54820943  0.00477209     1.10100
Cl1058     Cl  0.50167468  0.49764273  0.50161672    -0.85000
C1059       C  0.61926615  0.99786869  0.90823552     0.97300
C1060       C  0.61268685  0.49057721  0.59912167     0.97100
N1061       N  0.97825602  0.80914308  0.75147090    -0.35700
N1062       N  0.99480717  0.75135826  0.69153270    -0.56200
N1063       N  0.98647165  0.69542234  0.75506090    -0.35600
N1064       N  0.97508641  0.75346260  0.81553846    -0.56200
C1065       C  0.98458765  0.82980407  0.71825499     0.27900
C1066       C  0.98004478  0.83092401  0.78447849     0.27900
C1067       C  0.00003969  0.67375211  0.72439539     0.27900
C1068       C  0.98710502  0.67477388  0.78939053     0.27900
C1069       C  0.98786658  0.78017235  0.66596512     0.36500
C1070       C  0.99652913  0.72070763  0.66844573     0.36600
C1071       C  0.96786098  0.78406513  0.83811508     0.36500
C1072       C  0.96795176  0.72439281  0.83930134     0.36600
C1073       C  0.98972055  0.86548248  0.73011497    -0.20900
C1074       C  0.98699233  0.86618476  0.77182343    -0.20900
C1075       C  0.00885796  0.63859675  0.73926191    -0.20900
C1076       C  0.00042151  0.63913640  0.78008471    -0.20900
C1077       C  0.98552996  0.76773509  0.62641817    -0.22000
C1078       C  0.99132436  0.73014715  0.62794382    -0.22000
C1079       C  0.95651624  0.77431337  0.87674184    -0.22000
C1080       C  0.95634588  0.73663971  0.87741062    -0.22000
C1081       C  0.98482099  0.81767520  0.67747154    -0.17300
C1082       C  0.97368113  0.82045464  0.82541837    -0.17300
C1083       C  0.97497832  0.68689512  0.82854571    -0.17300
C1084       C  0.00301890  0.68424428  0.68302684    -0.17300
H1085       H  0.99496954  0.88864080  0.71074774     0.15600
H1086       H  0.98928925  0.89022569  0.79049345     0.15600
H1087       H  0.01981751  0.61482554  0.72238122     0.15600
H1088       H  0.00373996  0.61574607  0.80040118     0.15600
H1089       H  0.98023116  0.78400080  0.59922629     0.13900
H1090       H  0.99110602  0.71182282  0.60220254     0.13900
H1091       H  0.94947683  0.79236769  0.90203462     0.13900
H1092       H  0.94942483  0.72013839  0.90340736     0.13900
H1093       H  0.97143224  0.78216396  0.75122771     0.27100
H1094       H  0.97585584  0.72233097  0.75235203     0.27100
N1095       N  0.80960986  0.00617320  0.75132934    -0.35700
N1096       N  0.75536987  0.98399452  0.81100437    -0.56200
N1097       N  0.69759328  0.99382894  0.74945160    -0.35600
N1098       N  0.75169840  0.01772459  0.69020355    -0.56200
C1099       C  0.83218101  0.99952664  0.78340205     0.27900
C1100       C  0.83068270  0.01433345  0.71896510     0.27900
C1101       C  0.67663337  0.98975666  0.78316301     0.27900
C1102       C  0.67485990  0.00628924  0.71918312     0.27900
C1103       C  0.78557623  0.98025087  0.83470213     0.36500
C1104       C  0.72663605  0.97451680  0.83401090     0.36600
C1105       C  0.78110027  0.02307152  0.66612308     0.36500
C1106       C  0.72188425  0.01921095  0.66587962     0.36600
C1107       C  0.86816177  0.00408386  0.77132277    -0.20900
C1108       C  0.86721287  0.01340730  0.73081568    -0.20900
C1109       C  0.64002069  0.99892252  0.77378581    -0.20900
C1110       C  0.63893727  0.00939858  0.73361972    -0.20900
C1111       C  0.77588020  0.96829527  0.87313080    -0.22000
C1112       C  0.73869189  0.96457644  0.87265276    -0.22000
C1113       C  0.76974532  0.02853277  0.62629773    -0.22000
C1114       C  0.73236450  0.02605290  0.62613375    -0.22000
C1115       C  0.82162240  0.98859457  0.82304073    -0.17300
C1116       C  0.81830359  0.02179045  0.67877137    -0.17300
C1117       C  0.68525897  0.01464766  0.67869158    -0.17300
C1118       C  0.68923523  0.97772445  0.82213300    -0.17300
H1119       H  0.89277929  0.00043360  0.78951898     0.15600
H1120       H  0.89090059  0.01857384  0.71216818     0.15600
H1121       H  0.61637111  0.99837675  0.79379206     0.15600
H1122       H  0.61440424  0.01862188  0.71705784     0.15600
H1123       H  0.79358526  0.96326116  0.89911527     0.13900
H1124       H  0.72228964  0.95639391  0.89824260     0.13900
H1125       H  0.78667703  0.03324733  0.59989401     0.13900
H1126       H  0.71501235  0.02859849  0.59958807     0.13900
H1127       H  0.78151663  0.00501443  0.75145851     0.27100
H1128       H  0.72556596  0.98723734  0.74680267     0.27100
C1129       C  0.65590259  0.02000136  0.64746020    -0.15500
C1130       C  0.63646827  0.99194484  0.63592620    -0.30700
H1131       H  0.65061034  0.54283682  0.63412941     0.13500
H1132       H  0.64109176  0.96542119  0.65095872     0.14100
C1133       C  0.64463497  0.00087653  0.87351964    -0.15500
C1134       C  0.66130035  0.97187070  0.85431286    -0.30700
H1135       H  0.65127873  0.52979990  0.86375539     0.13500
H1136       H  0.65701222  0.94404093  0.86426623     0.14100
C1137       C  0.86483848  0.99616428  0.63076138    -0.15500
C1138       C  0.84662444  0.02602192  0.64674999    -0.30700
H1139       H  0.85950613  0.96908522  0.64239843     0.13500
H1140       H  0.84661965  0.54925008  0.63323833     0.14100
C1141       C  0.85041839  0.98480188  0.85480080    -0.15500
C1142       C  0.86564419  0.01439242  0.86955264    -0.30700
H1143       H  0.85648916  0.95791007  0.86855604     0.13500
H1144       H  0.85443133  0.53729149  0.86126308     0.14100
C1145       C  0.01204542  0.65511712  0.65240843    -0.15500
C1146       C  0.98595430  0.63389489  0.63963543    -0.30700
H1147       H  0.53708335  0.65527552  0.62985867     0.13500
H1148       H  0.95869322  0.63706249  0.65336832     0.14100
C1149       C  0.97149388  0.65890947  0.86125251    -0.15500
C1150       C  0.00149385  0.64199388  0.87839410    -0.30700
H1151       H  0.45086471  0.64762591  0.86549991     0.13500
H1152       H  0.02855832  0.64815803  0.86731174     0.14100
C1153       C  0.98188142  0.84621953  0.64498343    -0.15500
C1154       C  0.01053009  0.85215304  0.62062377    -0.30700
H1155       H  0.95641541  0.86348476  0.64253934     0.13500
H1156       H  0.53294706  0.85471369  0.64428916     0.14100
C1157       C  0.00297727  0.86478076  0.86919913    -0.15500
C1158       C  0.97238532  0.84941095  0.85722198    -0.30700
H1159       H  0.53554492  0.84814621  0.85850435     0.13500
H1160       H  0.94641161  0.85598669  0.87287962     0.14100
loop_ 
_geom_bond_atom_site_label_1 
_geom_bond_atom_site_label_2 
_geom_bond_distance 
_geom_bond_site_symmetry_2 
_ccdc_geom_bond_type 
N1            N2   1.322       .  A
N1          N297   1.317   1_545  A
N1          Mn30   2.213       .  S
N2          C299   1.354       .  A
N3            N4   1.323       .  A
N3          N295   1.316       .  A
N3          Mn19   2.211   1_554  S
N4          C300   1.356       .  A
N5            N6   1.319       .  A
N5          N293   1.316   1_545  A
N5         Mn175   2.195   1_554  S
N6           C10   1.349       .  A
N7            N8   1.322       .  A
N7          N291   1.316       .  A
N7         Mn164   2.210       .  S
N8            C9   1.354       .  A
C9          N292   1.351       .  A
C9          C127   1.473       .  S
C10         N294   1.355   1_545  A
C10         C412   1.470       .  S
N11          N12   1.318       .  A
N11         N597   1.317   1_455  A
N11         Mn41   2.199   1_554  S
N12          C20   1.349       .  A
N13          N14   1.320       .  A
N13         N595   1.316       .  A
N13        Mn164   2.196       .  S
N14          C21   1.352       .  A
N15          N16   1.323       .  A
N15         N593   1.316   1_455  A
N15        Mn186   2.213       .  S
N16         C601   1.355       .  A
N17          N18   1.322       .  A
N17         N591   1.316       .  A
N17         Mn19   2.211   1_554  S
N18         C600   1.355       .  A
Mn19        N152   2.213       .  S
Mn19        N158   2.207       .  S
Mn19       Cl913   2.556   1_556  S
C20         N598   1.357   1_455  A
C20         C719   1.474       .  S
C21         N596   1.353       .  A
C21         C142   1.474       .  S
N22          N23   1.318       .  A
N22         N608   1.316       .  A
N22        Mn175   2.192   1_554  S
N23         C611   1.348       .  A
N24          N25   1.318       .  A
N24         N606   1.316   1_455  A
N24         Mn42   2.195       .  S
N25         C612   1.349       .  A
N26          N27   1.323       .  A
N26         N604   1.317       .  A
N26         Mn30   2.217       .  S
N27          C32   1.356       .  A
N28          N29   1.325       .  A
N28         N602   1.316   1_455  A
N28        Mn187   2.223       .  S
N29          C31   1.358   1_455  A
Mn30        N150   2.207       .  S
Mn30        N167   2.199       .  S
Mn30       Cl768   2.546       .  S
C31         N603   1.348       .  A
C31         C711   1.477       .  S
C32         N605   1.349       .  A
C32         C135   1.472       .  S
N33          N34   1.322       .  A
N33         N329   1.316       .  A
N33        Mn186   2.205       .  S
N34          C44   1.354       .  A
N35          N36   1.323       .  A
N35         N327   1.316   1_545  A
N35        Mn187   2.215       .  S
N36          C45   1.356   1_545  A
N37          N38   1.319       .  A
N37         N325   1.316       .  A
N37         Mn41   2.199   1_554  S
N38         C335   1.349       .  A
N39          N40   1.320       .  A
N39         N323   1.316   1_545  A
N39         Mn42   2.202       .  S
N40         C334   1.350       .  A
Mn41        N160   2.208       .  S
Mn41        N178   2.215       .  S
Mn41       Cl333   2.543   1_556  S
Mn42        N173   2.215       .  S
Mn42        N180   2.208       .  S
Mn42       Cl188   2.552   1_545  S
Cl43       Mn889   2.552   1_444  S
Cl43       Mn755   2.545   1_455  S
Cl43       Mn331   2.546   1_544  S
Cl43       Mn187   2.552       .  S
C44         N330   1.351       .  A
C44         C118   1.475       .  S
C45         N328   1.348       .  A
C45         C405   1.472       .  S
N46          C51   1.353       .  A
N46          C50   1.351       .  A
N46          H78   1.035       .  S
N47          C54   1.351       .  A
N47          C55   1.353       .  A
N48          C53   1.353       .  A
N48          C52   1.354       .  A
N48          H79   1.035       .  S
N49          C56   1.353       .  A
N49          C57   1.351       .  A
C50          C58   1.389       .  A
C50          C66   1.414       .  A
C51          C67   1.413       .  A
C51          C59   1.387       .  A
C52          C60   1.387       .  A
C52          C69   1.418       .  A
C53          C68   1.418       .  A
C53          C61   1.387       .  A
C54          C66   1.416       .  A
C54          C62   1.387       .  A
C55          C69   1.416       .  A
C55          C63   1.386       .  A
C56          C64   1.387       .  A
C56          C67   1.416       .  A
C57          C65   1.386       .  A
C57          C68   1.415       .  A
C58          C59   1.377       .  A
C58          H70   1.083       .  S
C59          H71   1.082       .  S
C60          C61   1.376       .  A
C60          H72   1.082       .  S
C61          H73   1.082       .  S
C62          C63   1.373       .  A
C62          H74   1.082       .  S
C63          H75   1.082       .  S
C64          C65   1.372       .  A
C64          H76   1.082       .  S
C65          H77   1.082       .  S
C66         C138   1.479       .  S
C67         C143   1.486       .  S
C68         C134   1.485       .  S
C69         C130   1.490       .  S
N80          C85   1.353       .  A
N80          C84   1.353       .  A
N80         H112   1.036       .  S
N81          C88   1.352       .  A
N81          C89   1.352       .  A
N82          C87   1.354       .  A
N82          C86   1.354       .  A
N82         H113   1.035       .  S
N83          C90   1.352       .  A
N83          C91   1.353       .  A
C84          C92   1.387       .  A
C84         C100   1.414       .  A
C85         C101   1.415       .  A
C85          C93   1.388       .  A
C86          C94   1.387       .  A
C86         C103   1.417       .  A
C87         C102   1.418       .  A
C87          C95   1.387       .  A
C88         C100   1.416       .  A
C88          C96   1.387       .  A
C89         C103   1.415       .  A
C89          C97   1.386       .  A
C90          C98   1.387       .  A
C90         C101   1.417       .  A
C91          C99   1.387       .  A
C91         C102   1.416       .  A
C92          C93   1.376       .  A
C92         H104   1.082       .  S
C93         H105   1.082       .  S
C94          C95   1.377       .  A
C94         H106   1.082       .  S
C95         H107   1.082       .  S
C96          C97   1.372       .  A
C96         H108   1.082       .  S
C97         H109   1.082       .  S
C98          C99   1.373       .  A
C98         H110   1.082       .  S
C99         H111   1.082       .  S
C100        C126   1.485       .  S
C101        C123   1.484       .  S
C102        C114   1.488       .  S
C103        C119   1.485       .  S
C114        C115   1.341       .  D
C114        H406   1.086       .  S
C115        C335   1.476       .  S
C115        H117   1.087       .  S
H116        C404   1.086       .  S
C118        C119   1.341       .  D
C118        H410   1.087       .  S
C119        H121   1.086       .  S
H120        C408   1.087       .  S
C122        C300   1.472       .  S
C122        C123   1.340       .  D
C122        H124   1.087       .  S
C123        H415   1.086       .  S
H125        C413   1.086       .  S
C126        C127   1.341       .  D
C126        H128   1.086       .  S
C127        H419   1.087       .  S
H129        C417   1.087       .  S
C130        C131   1.341       .  D
C130        H712   1.086       .  S
C131        C611   1.475       .  S
C131        H133   1.087       .  S
H132        C710   1.086       .  S
C134        C135   1.339       .  D
C134        H716   1.086       .  S
C135        H137   1.087       .  S
H136        C714   1.086       .  S
C138        C139   1.337       .  D
C138        H140   1.086       .  S
C139        C600   1.467       .  S
C139        H721   1.087       .  S
H141        C719   1.087       .  S
C142        C143   1.343       .  D
C142        H724   1.087       .  S
C143        H145   1.086       .  S
H144        C722   1.087       .  S
N146        N147   1.320       .  A
N146        N442   1.316   1_545  A
N146       Mn175   2.199       .  S
N147        C444   1.351       .  A
N148        N440   1.316       .  A
N148        N149   1.318       .  A
N148       Mn164   2.195       .  S
N149        C445   1.349       .  A
N150        N438   1.316   1_545  A
N150        N151   1.320       .  A
N151        C155   1.351       .  A
N152        N436   1.316       .  A
N152        N153   1.322       .  A
N153        C154   1.355       .  A
C154        N437   1.351       .  A
C154        C272   1.474       .  S
C155        N439   1.356   1_545  A
C155        C557   1.477       .  S
N156        N742   1.316   1_455  A
N156        N157   1.319       .  A
N156       Mn186   2.194       .  S
N157        C165   1.349       .  A
N158        N159   1.322       .  A
N158        N740   1.317       .  A
N159        C166   1.353       .  A
N160        N738   1.316   1_455  A
N160        N161   1.322       .  A
N161        C746   1.353       .  A
N162        N736   1.315       .  A
N162        N163   1.323       .  A
N162       Mn164   2.214       .  S
N163        C745   1.356       .  A
Mn164     Cl1058   2.549       .  S
C165        N743   1.356   1_455  A
C165        C864   1.473       .  S
C166        N741   1.354       .  A
C166        C287   1.479       .  S
N167        N168   1.319       .  A
N167        N753   1.316       .  A
N168        C756   1.349       .  A
N169        N751   1.315   1_455  A
N169        N170   1.320       .  A
N169       Mn187   2.200   1_556  S
N170        C757   1.350       .  A
N171        N749   1.315       .  A
N171        N172   1.323       .  A
N171       Mn175   2.211       .  S
N172        C177   1.356       .  A
N173        N747   1.316   1_455  A
N173        N174   1.324       .  A
N174        C176   1.356   1_455  A
Mn175      Cl623   2.546   1_546  S
C176        N748   1.349       .  A
C176        C856   1.473       .  S
C177        N750   1.349       .  A
C177        C280   1.472       .  S
N178        N179   1.324       .  A
N178        N474   1.316       .  A
N179        C189   1.356       .  A
N180        N181   1.322       .  A
N180        N472   1.317   1_545  A
N181        C190   1.355   1_545  A
N182        N470   1.316       .  A
N182        N183   1.320       .  A
N182       Mn186   2.205       .  S
N183        C480   1.351       .  A
N184        N468   1.316   1_545  A
N184        N185   1.318       .  A
N184       Mn187   2.200   1_556  S
N185        C479   1.349       .  A
Mn186      Cl478   2.548       .  S
Cl188     Mn1034   2.547   1_455  S
Cl188      Mn610   2.549   1_465  S
Cl188      Mn476   2.550       .  S
C189        N475   1.349       .  A
C189        C263   1.474       .  S
C190        N473   1.351       .  A
C190        C550   1.476       .  S
N191        C196   1.353       .  A
N191        C195   1.352       .  A
N191        H223   1.036       .  S
N192        C199   1.351       .  A
N192        C200   1.353       .  A
N193        C198   1.353       .  A
N193        C197   1.355       .  A
N193        H224   1.034       .  S
N194        C201   1.354       .  A
N194        C202   1.351       .  A
C195        C203   1.389       .  A
C195        C211   1.416       .  A
C196        C212   1.414       .  A
C196        C204   1.386       .  A
C197        C205   1.386       .  A
C197        C214   1.418       .  A
C198        C213   1.420       .  A
C198        C206   1.388       .  A
C199        C211   1.417       .  A
C199        C207   1.388       .  A
C200        C214   1.415       .  A
C200        C208   1.386       .  A
C201        C209   1.386       .  A
C201        C212   1.416       .  A
C202        C210   1.387       .  A
C202        C213   1.417       .  A
C203        C204   1.377       .  A
C203        H215   1.082       .  S
C204        H216   1.082       .  S
C205        C206   1.377       .  A
C205        H217   1.082       .  S
C206        H218   1.082       .  S
C207        C208   1.372       .  A
C207        H219   1.082       .  S
C208        H220   1.082       .  S
C209        C210   1.373       .  A
C209        H221   1.082       .  S
C210        H222   1.082       .  S
C211        C283   1.483       .  S
C212        C288   1.489       .  S
C213        C279   1.485       .  S
C214        C275   1.490       .  S
N225        C230   1.354       .  A
N225        C229   1.353       .  A
N225        H257   1.034       .  S
N226        C233   1.352       .  A
N226        C234   1.353       .  A
N227        C232   1.353       .  A
N227        C231   1.353       .  A
N227        H258   1.032       .  S
N228        C235   1.353       .  A
N228        C236   1.353       .  A
C229        C237   1.386       .  A
C229        C245   1.416       .  A
C230        C246   1.421       .  A
C230        C238   1.389       .  A
C231        C239   1.386       .  A
C231        C248   1.416       .  A
C232        C247   1.421       .  A
C232        C240   1.389       .  A
C233        C245   1.414       .  A
C233        C241   1.386       .  A
C234        C248   1.415       .  A
C234        C242   1.386       .  A
C235        C243   1.387       .  A
C235        C246   1.417       .  A
C236        C244   1.387       .  A
C236        C247   1.418       .  A
C237        C238   1.376       .  A
C237        H249   1.082       .  S
C238        H250   1.081       .  S
C239        C240   1.376       .  A
C239        H251   1.082       .  S
C240        H252   1.081       .  S
C241        C242   1.371       .  A
C241        H253   1.082       .  S
C242        H254   1.082       .  S
C243        C244   1.373       .  A
C243        H255   1.082       .  S
C244        H256   1.082       .  S
C245        C271   1.485       .  S
C246        C268   1.490       .  S
C247        C259   1.487       .  S
C248        C264   1.486       .  S
C259        C260   1.342       .  D
C259        H551   1.086       .  S
C260        C480   1.473       .  S
C260        H262   1.087       .  S
H261        C549   1.086       .  S
C263        C264   1.340       .  D
C263        H555   1.087       .  S
C264        H266   1.086       .  S
H265        C553   1.087       .  S
C267        C445   1.474       .  S
C267        C268   1.341       .  D
C267        H269   1.087       .  S
C268        H560   1.086       .  S
H270        C558   1.086       .  S
C271        C272   1.341       .  D
C271        H273   1.086       .  S
C272        H564   1.087       .  S
H274        C562   1.087       .  S
C275        C276   1.341       .  D
C275        H857   1.086       .  S
C276        C756   1.477       .  S
C276        H278   1.087       .  S
H277        C855   1.087       .  S
C279        C280   1.339       .  D
C279        H861   1.086       .  S
C280        H282   1.087       .  S
H281        C859   1.086       .  S
C283        C284   1.338       .  D
C283        H285   1.086       .  S
C284        C745   1.469       .  S
C284        H866   1.087       .  S
H286        C864   1.087       .  S
C287        C288   1.345       .  D
C287        H869   1.087       .  S
C288        H290   1.086       .  S
H289        C867   1.087       .  S
N291        N292   1.320       .  A
N291       Mn320   2.196       .  S
N293        N294   1.322       .  A
N293       Mn309   2.208   1_554  S
N295        N296   1.319       .  A
N295       Mn465   2.193   1_554  S
N296        C300   1.349       .  A
N297        N298   1.321       .  A
N297       Mn454   2.207       .  S
N298        C299   1.353   1_565  A
C299        C417   1.478       .  S
N301        N887   1.316   1_455  A
N301        N302   1.318       .  A
N301       Mn331   2.197   1_554  S
N302        C310   1.349       .  A
N303        N304   1.321       .  A
N303        N885   1.317       .  A
N303       Mn454   2.202       .  S
N304        C311   1.352       .  A
N305        N883   1.316   1_455  A
N305        N306   1.324       .  A
N305       Mn476   2.222       .  S
N306        C891   1.356       .  A
N307        N881   1.317       .  A
N307        N308   1.323       .  A
N307       Mn309   2.217   1_554  S
N308        C890   1.357       .  A
Mn309       N442   2.210       .  S
Mn309       N448   2.198       .  S
Mn309      Cl623   2.553   1_556  S
C310        N888   1.357   1_455  A
C310       C1009   1.474       .  S
C311        N886   1.355       .  A
C311        C432   1.479       .  S
N312        N313   1.318       .  A
N312        N898   1.316       .  A
N312       Mn465   2.192   1_554  S
N313        C901   1.348       .  A
N314        N896   1.317   1_455  A
N314        N315   1.317       .  A
N314       Mn332   2.188       .  S
N315        C902   1.347       .  A
N316        N894   1.317       .  A
N316        N317   1.325       .  A
N316       Mn320   2.223       .  S
N317        C322   1.357       .  A
N318        N892   1.316   1_455  A
N318        N319   1.325       .  A
N318       Mn477   2.216       .  S
N319        C321   1.357   1_455  A
Mn320       N440   2.217       .  S
Mn320       N457   2.185       .  S
Mn320     Cl1058   2.549       .  S
C321        N893   1.348       .  A
C321       C1001   1.475       .  S
C322        N895   1.348       .  A
C322        C425   1.473       .  S
N323        N324   1.321       .  A
N323       Mn476   2.204       .  S
N324        C334   1.354   1_565  A
N325        N326   1.324       .  A
N325       Mn477   2.218       .  S
N326        C335   1.357       .  A
N327        N328   1.318       .  A
N327       Mn331   2.193   1_554  S
N329        N330   1.321       .  A
N329       Mn332   2.206       .  S
Mn331       N450   2.210       .  S
Mn331       N468   2.206       .  S
Mn332       N463   2.213       .  S
Mn332       N470   2.201       .  S
Mn332      Cl478   2.551       .  S
Cl333      Mn599   2.561   1_455  S
Cl333     Mn1045   2.540   1_455  S
Cl333      Mn477   2.558       .  S
C334        C408   1.473       .  S
N336        C341   1.353       .  A
N336        C340   1.353       .  A
N336        H368   1.036       .  S
N337        C344   1.352       .  A
N337        C345   1.353       .  A
N338        C343   1.354       .  A
N338        C342   1.355       .  A
N338        H369   1.035       .  S
N339        C346   1.354       .  A
N339        C347   1.352       .  A
C340        C348   1.389       .  A
C340        C356   1.417       .  A
C341        C357   1.414       .  A
C341        C349   1.386       .  A
C342        C350   1.387       .  A
C342        C359   1.419       .  A
C343        C358   1.419       .  A
C343        C351   1.387       .  A
C344        C356   1.418       .  A
C344        C352   1.388       .  A
C345        C359   1.416       .  A
C345        C353   1.386       .  A
C346        C354   1.386       .  A
C346        C357   1.416       .  A
C347        C355   1.387       .  A
C347        C358   1.416       .  A
C348        C349   1.377       .  A
C348        H360   1.082       .  S
C349        H361   1.082       .  S
C350        C351   1.377       .  A
C350        H362   1.082       .  S
C351        H363   1.082       .  S
C352        C353   1.373       .  A
C352        H364   1.082       .  S
C353        H365   1.082       .  S
C354        C355   1.373       .  A
C354        H366   1.082       .  S
C355        H367   1.082       .  S
C356        C428   1.485       .  S
C357        C433   1.488       .  S
C358        C424   1.487       .  S
C359        C420   1.490       .  S
N370        C375   1.352       .  A
N370        C374   1.353       .  A
N370        H402   1.033       .  S
N371        C378   1.353       .  A
N371        C379   1.352       .  A
N372        C377   1.353       .  A
N372        C376   1.353       .  A
N372        H403   1.034       .  S
N373        C380   1.352       .  A
N373        C381   1.352       .  A
C374        C382   1.387       .  A
C374        C390   1.417       .  A
C375        C391   1.419       .  A
C375        C383   1.389       .  A
C376        C384   1.388       .  A
C376        C393   1.417       .  A
C377        C392   1.417   1_565  A
C377        C385   1.388       .  A
C378        C390   1.417       .  A
C378        C386   1.386       .  A
C379        C393   1.417       .  A
C379        C387   1.387       .  A
C380        C388   1.388   1_565  A
C380        C391   1.419       .  A
C381        C389   1.386   1_565  A
C381        C392   1.416   1_565  A
C382        C383   1.377       .  A
C382        H394   1.083       .  S
C383        H395   1.082       .  S
C384        C385   1.375       .  A
C384        H396   1.082       .  S
C385        H397   1.082       .  S
C386        C387   1.373       .  A
C386        H398   1.082       .  S
C387        H399   1.082       .  S
C388        C389   1.372       .  A
C388        H400   1.082       .  S
C389        H401   1.082       .  S
C390        C416   1.487       .  S
C391        C413   1.484       .  S
C392        C404   1.485       .  S
C393        C409   1.483       .  S
C404        C405   1.339   1_545  D
C405        H407   1.087       .  S
C408        C409   1.340   1_545  D
C409        H411   1.086       .  S
C412        C413   1.339   1_545  D
C412        H414   1.087       .  S
C416        C417   1.344   1_565  D
C416        H418   1.086       .  S
C420        C421   1.340       .  D
C420       H1002   1.086       .  S
C421        C901   1.476       .  S
C421        H423   1.087       .  S
H422       C1000   1.086       .  S
C424        C425   1.339       .  D
C424       H1006   1.086       .  S
C425        H427   1.087       .  S
H426       C1004   1.086       .  S
C428        C429   1.339       .  D
C428        H430   1.086       .  S
C429        C890   1.471       .  S
C429       H1011   1.087       .  S
H431       C1009   1.087       .  S
C432        C433   1.346       .  D
C432       H1014   1.087       .  S
C433        H435   1.086       .  S
H434       C1012   1.086       .  S
N436        N437   1.320       .  A
N436       Mn465   2.199       .  S
N438        N439   1.323       .  A
N438       Mn454   2.211       .  S
N440        N441   1.324       .  A
N441        C445   1.356       .  A
N442        N443   1.321       .  A
N443        C444   1.354   1_565  A
C444        C562   1.473       .  S
N446       N1032   1.316   1_455  A
N446        N447   1.320       .  A
N446       Mn476   2.197       .  S
N447        C455   1.350       .  A
N448        N449   1.320       .  A
N448       N1030   1.317       .  A
N449        C456   1.352       .  A
N450       N1028   1.316   1_455  A
N450        N451   1.322       .  A
N451       C1036   1.354       .  A
N452       N1026   1.315       .  A
N452        N453   1.323       .  A
N452       Mn454   2.215       .  S
N453       C1035   1.357       .  A
Mn454      Cl768   2.556   1_565  S
C455       N1033   1.356   1_455  A
C455       C1154   1.475       .  S
C456       N1031   1.354       .  A
C456        C577   1.476       .  S
N457        N458   1.317       .  A
N457       N1043   1.316       .  A
N458       C1046   1.347       .  A
N459       N1041   1.316   1_455  A
N459        N460   1.320       .  A
N459       Mn477   2.202   1_556  S
N460       C1047   1.350   1_455  A
N461       N1039   1.315       .  A
N461        N462   1.321       .  A
N461       Mn465   2.201       .  S
N462        C467   1.354       .  A
N463       N1037   1.316   1_455  A
N463        N464   1.324       .  A
N464        C466   1.356   1_455  A
Mn465      Cl913   2.539   1_556  S
C466       N1038   1.348       .  A
C466       C1146   1.473       .  S
C467       N1040   1.349       .  A
C467        C570   1.467       .  S
N468        N469   1.322       .  A
N469        C479   1.355   1_565  A
N470        N471   1.322       .  A
N471        C480   1.354       .  A
N472        N473   1.321       .  A
N472       Mn476   2.211       .  S
N474        N475   1.319       .  A
N474       Mn477   2.199   1_556  S
Cl478      Mn744   2.546   1_455  S
Cl478      Mn900   2.548   1_455  S
C479        C553   1.470       .  S
N481        C486   1.354       .  A
N481        C485   1.351       .  A
N481        H513   1.033       .  S
N482        C489   1.352       .  A
N482        C490   1.352       .  A
N483        C488   1.351       .  A
N483        C487   1.353       .  A
N483        H514   1.033       .  S
N484        C491   1.352       .  A
N484        C492   1.351       .  A
C485        C493   1.387       .  A
C485        C501   1.416       .  A
C486        C502   1.418       .  A
C486        C494   1.388       .  A
C487        C495   1.387       .  A
C487        C504   1.417       .  A
C488        C503   1.416       .  A
C488        C496   1.388       .  A
C489        C501   1.416       .  A
C489        C497   1.387       .  A
C490        C504   1.415       .  A
C490        C498   1.386       .  A
C491        C499   1.386       .  A
C491        C502   1.414       .  A
C492        C500   1.387       .  A
C492        C503   1.414       .  A
C493        C494   1.376       .  A
C493        H505   1.082       .  S
C494        H506   1.082       .  S
C495        C496   1.376       .  A
C495        H507   1.082       .  S
C496        H508   1.082       .  S
C497        C498   1.373       .  A
C497        H509   1.082       .  S
C498        H510   1.082       .  S
C499        C500   1.373       .  A
C499        H511   1.082       .  S
C500        H512   1.082       .  S
C501        C573   1.482       .  S
C502        C578   1.485       .  S
C503        C569   1.479       .  S
C504        C565   1.485       .  S
N515        C520   1.354       .  A
N515        C519   1.353       .  A
N515        H547   1.036       .  S
N516        C523   1.351       .  A
N516        C524   1.351       .  A
N517        C522   1.353       .  A
N517        C521   1.353       .  A
N517        H548   1.034   1_565  S
N518        C525   1.353       .  A
N518        C526   1.353   1_565  A
C519        C527   1.386       .  A
C519        C535   1.414       .  A
C520        C536   1.418       .  A
C520        C528   1.389       .  A
C521        C529   1.387       .  A
C521        C538   1.418       .  A
C522        C537   1.418   1_565  A
C522        C530   1.388       .  A
C523        C535   1.413       .  A
C523        C531   1.387       .  A
C524        C538   1.414       .  A
C524        C532   1.387       .  A
C525        C533   1.387   1_565  A
C525        C536   1.418       .  A
C526        C534   1.387       .  A
C526        C537   1.417       .  A
C527        C528   1.376       .  A
C527        H539   1.082       .  S
C528        H540   1.082       .  S
C529        C530   1.376       .  A
C529        H541   1.082       .  S
C530        H542   1.082       .  S
C531        C532   1.372       .  A
C531        H543   1.082       .  S
C532        H544   1.082       .  S
C533        C534   1.373       .  A
C533        H545   1.082       .  S
C534        H546   1.082       .  S
C535        C561   1.482       .  S
C536        C558   1.488       .  S
C537        C549   1.487       .  S
C538        C554   1.483       .  S
C549        C550   1.342   1_545  D
C550        H552   1.087       .  S
C553        C554   1.339   1_545  D
C554        H556   1.086       .  S
C557        C558   1.342   1_545  D
C557        H559   1.087       .  S
C561        C562   1.341   1_565  D
C561        H563   1.086       .  S
C565        C566   1.339       .  D
C565       H1147   1.086       .  S
C566       C1046   1.472       .  S
C566        H568   1.087       .  S
H567       C1145   1.086       .  S
C569        C570   1.338       .  D
C569       H1151   1.086       .  S
C570        H572   1.087       .  S
H571       C1149   1.086       .  S
C573        C574   1.337       .  D
C573        H575   1.086       .  S
C574       C1035   1.470       .  S
C574       H1156   1.087       .  S
H576       C1154   1.087       .  S
C577        C578   1.344       .  D
C577       H1159   1.086       .  S
C578        H580   1.086       .  S
H579       C1157   1.087       .  S
N581        N582   1.321       .  A
N581        N877   1.316   1_545  A
N581       Mn610   2.205       .  S
N582        C879   1.352       .  A
N583        N875   1.316       .  A
N583        N584   1.324       .  A
N583       Mn599   2.212       .  S
N584        C880   1.356       .  A
N585        N873   1.316   1_545  A
N585        N586   1.319       .  A
N585       Mn755   2.195       .  S
N586        C590   1.349       .  A
N587        N871   1.316       .  A
N587        N588   1.324       .  A
N587       Mn744   2.215       .  S
N588        C589   1.355       .  A
C589        N872   1.352       .  A
C589        C707   1.477       .  S
C590        N874   1.354   1_545  A
C590        C992   1.470       .  S
N591        N592   1.317       .  A
N591       Mn621   2.188   1_554  S
N592        C600   1.348       .  A
N593        N594   1.318       .  A
N593       Mn744   2.192       .  S
N594        C601   1.350   1_655  A
N595        N596   1.322       .  A
N595       Mn766   2.213       .  S
N597        N598   1.324       .  A
N597       Mn599   2.219       .  S
Mn599       N732   2.214   1_554  S
Mn599       N738   2.201   1_554  S
C601        C722   1.474       .  S
N602        N603   1.318       .  A
N602       Mn755   2.197       .  S
N604        N605   1.319       .  A
N604       Mn622   2.197       .  S
N606        N607   1.325       .  A
N606       Mn610   2.222       .  S
N607        C612   1.358   1_655  A
N608        N609   1.325       .  A
N608       Mn767   2.221       .  S
N609        C611   1.358       .  A
Mn610       N730   2.206       .  S
Mn610       N747   2.199       .  S
C612        C715   1.476       .  S
N613        N614   1.318       .  A
N613        N909   1.316       .  A
N613       Mn766   2.189       .  S
N614        C624   1.348       .  A
N615        N616   1.322       .  A
N615        N907   1.316   1_545  A
N615       Mn767   2.206       .  S
N616        C625   1.355   1_545  A
N617        N905   1.316       .  A
N617        N618   1.320       .  A
N617       Mn621   2.207   1_554  S
N618        C915   1.351       .  A
N619        N903   1.316   1_545  A
N619        N620   1.322       .  A
N619       Mn622   2.208       .  S
N620        C914   1.354   1_545  A
Mn621       N740   2.216       .  S
Mn621       N758   2.201       .  S
Mn621      Cl913   2.545   1_556  S
Mn622       N753   2.220       .  S
Mn622       N760   2.207       .  S
Mn622      Cl768   2.557       .  S
Cl623      Mn911   2.549   1_554  S
Cl623      Mn767   2.548   1_565  S
C624        N910   1.356       .  A
C624        C698   1.471       .  S
C625        N908   1.351       .  A
C625        C985   1.475       .  S
N626        C631   1.352       .  A
N626        C630   1.353       .  A
N626        H658   1.036   1_655  S
N627        C634   1.353       .  A
N627        C635   1.353   1_655  A
N628        C633   1.355       .  A
N628        C632   1.354   1_655  A
N628        H659   1.034   1_655  S
N629        C636   1.352       .  A
N629        C637   1.352       .  A
C630        C638   1.389       .  A
C630        C646   1.417       .  A
C631        C647   1.413       .  A
C631        C639   1.386       .  A
C632        C640   1.387   1_455  A
C632        C649   1.421       .  A
C633        C648   1.421       .  A
C633        C641   1.388       .  A
C634        C646   1.418       .  A
C634        C642   1.387   1_655  A
C635        C649   1.418       .  A
C635        C643   1.387       .  A
C636        C644   1.386       .  A
C636        C647   1.415       .  A
C637        C645   1.387       .  A
C637        C648   1.417       .  A
C638        C639   1.377       .  A
C638        H650   1.082       .  S
C639        H651   1.083       .  S
C640        C641   1.378       .  A
C640        H652   1.082       .  S
C641        H653   1.082       .  S
C642        C643   1.373       .  A
C642        H654   1.082       .  S
C643        H655   1.082       .  S
C644        C645   1.373       .  A
C644        H656   1.082       .  S
C645        H657   1.082       .  S
C646        C718   1.488       .  S
C647        C723   1.481       .  S
C648        C714   1.488       .  S
C649        C710   1.490       .  S
N660        C665   1.353       .  A
N660        C664   1.354       .  A
N660        H692   1.033       .  S
N661        C668   1.354       .  A
N661        C669   1.353       .  A
N662        C667   1.354       .  A
N662        C666   1.353       .  A
N662        H693   1.034       .  S
N663        C670   1.353       .  A
N663        C671   1.352       .  A
C664        C672   1.388       .  A
C664        C680   1.419       .  A
C665        C681   1.417       .  A
C665        C673   1.387       .  A
C666        C674   1.389       .  A
C666        C683   1.418       .  A
C667        C682   1.415       .  A
C667        C675   1.387       .  A
C668        C680   1.421       .  A
C668        C676   1.388       .  A
C669        C683   1.417       .  A
C669        C677   1.386       .  A
C670        C678   1.388       .  A
C670        C681   1.419       .  A
C671        C679   1.386       .  A
C671        C682   1.416       .  A
C672        C673   1.377       .  A
C672        H684   1.082       .  S
C673        H685   1.082       .  S
C674        C675   1.374       .  A
C674        H686   1.082       .  S
C675        H687   1.082       .  S
C676        C677   1.372       .  A
C676        H688   1.082       .  S
C677        H689   1.082       .  S
C678        C679   1.372       .  A
C678        H690   1.082       .  S
C679        H691   1.082       .  S
C680        C706   1.492       .  S
C681        C703   1.488       .  S
C682        C694   1.485       .  S
C683        C699   1.485       .  S
C694        C695   1.341       .  D
C694        H986   1.086       .  S
C695        C915   1.472       .  S
C695        H697   1.087       .  S
H696        C984   1.086       .  S
C698        C699   1.339       .  D
C698        H990   1.087       .  S
C699        H701   1.086       .  S
H700        C988   1.087       .  S
C702        C880   1.473       .  S
C702        C703   1.341       .  D
C702        H704   1.087       .  S
C703        H995   1.086       .  S
H705        C993   1.086       .  S
C706        C707   1.344       .  D
C706        H708   1.086       .  S
C707        H999   1.087       .  S
H709        C997   1.087       .  S
C710        C711   1.341   1_455  D
C711        H713   1.087       .  S
C714        C715   1.340   1_655  D
C715        H717   1.087       .  S
C718        C719   1.340   1_655  D
C718        H720   1.086       .  S
C722        C723   1.344   1_455  D
C723        H725   1.086       .  S
N726        N727   1.321       .  A
N726       N1022   1.316   1_545  A
N726       Mn755   2.204   1_556  S
N727       C1024   1.353       .  A
N728       N1020   1.316       .  A
N728        N729   1.319       .  A
N728       Mn744   2.195       .  S
N729       C1025   1.350       .  A
N730       N1018   1.316   1_545  A
N730        N731   1.321       .  A
N731        C735   1.354   1_545  A
N732       N1016   1.317       .  A
N732        N733   1.322       .  A
N733        C734   1.355       .  A
C734       N1017   1.351       .  A
C734        C852   1.475       .  S
C735       N1019   1.351       .  A
C735       C1137   1.472       .  S
N736        N737   1.317       .  A
N736       Mn766   2.184       .  S
N737        C745   1.348       .  A
N738        N739   1.320       .  A
N739        C746   1.352   1_655  A
N740        N741   1.322       .  A
N742        N743   1.323       .  A
N742       Mn744   2.213       .  S
C746        C867   1.474       .  S
N747        N748   1.319       .  A
N749        N750   1.318       .  A
N749       Mn767   2.194   1_556  S
N751        N752   1.322       .  A
N751       Mn755   2.208   1_556  S
N752        C757   1.355   1_655  A
N753        N754   1.325       .  A
N754        C756   1.357       .  A
C757        C860   1.474       .  S
N758        N759   1.322       .  A
N758       N1054   1.316       .  A
N759        C769   1.354       .  A
N760        N761   1.323       .  A
N760       N1052   1.316   1_545  A
N761        C770   1.355   1_545  A
N762       N1050   1.316       .  A
N762        N763   1.320       .  A
N762       Mn766   2.206       .  S
N763       C1060   1.351       .  A
N764       N1048   1.316   1_545  A
N764        N765   1.318       .  A
N764       Mn767   2.200   1_556  S
N765       C1059   1.348   1_545  A
Mn766     Cl1058   2.542       .  S
Cl768     Mn1056   2.541   1_545  S
C769       N1055   1.350       .  A
C769        C843   1.470       .  S
C770       N1053   1.352       .  A
C770       C1130   1.477       .  S
N771        C776   1.354       .  A
N771        C775   1.351       .  A
N771        H803   1.033       .  S
N772        C779   1.354   1_455  A
N772        C780   1.353       .  A
N773        C778   1.354       .  A
N773        C777   1.353   1_655  A
N773        H804   1.033       .  S
N774        C781   1.352       .  A
N774        C782   1.352       .  A
C775        C783   1.386       .  A
C775        C791   1.414       .  A
C776        C792   1.418       .  A
C776        C784   1.389       .  A
C777        C785   1.387       .  A
C777        C794   1.419       .  A
C778        C793   1.419       .  A
C778        C786   1.388   1_655  A
C779        C791   1.417       .  A
C779        C787   1.386       .  A
C780        C794   1.417       .  A
C780        C788   1.387   1_455  A
C781        C789   1.387       .  A
C781        C792   1.415       .  A
C782        C790   1.387       .  A
C782        C793   1.415       .  A
C783        C784   1.376       .  A
C783        H795   1.082   1_655  S
C784        H796   1.082       .  S
C785        C786   1.376       .  A
C785        H797   1.082       .  S
C786        H798   1.082       .  S
C787        C788   1.372       .  A
C787        H799   1.082       .  S
C788        H800   1.082       .  S
C789        C790   1.373       .  A
C789        H801   1.082       .  S
C790        H802   1.082       .  S
C791        C863   1.485       .  S
C792        C868   1.485       .  S
C793        C859   1.485       .  S
C794        C855   1.489       .  S
N805        C810   1.353       .  A
N805        C809   1.354       .  A
N805        H837   1.031       .  S
N806        C813   1.353       .  A
N806        C814   1.352       .  A
N807        C812   1.354       .  A
N807        C811   1.354       .  A
N807        H838   1.033       .  S
N808        C815   1.353       .  A
N808        C816   1.353       .  A
C809        C817   1.389       .  A
C809        C825   1.422       .  A
C810        C826   1.418       .  A
C810        C818   1.386       .  A
C811        C819   1.389       .  A
C811        C828   1.420       .  A
C812        C827   1.417       .  A
C812        C820   1.386       .  A
C813        C825   1.418       .  A
C813        C821   1.387       .  A
C814        C828   1.416       .  A
C814        C822   1.387       .  A
C815        C823   1.387       .  A
C815        C826   1.416       .  A
C816        C824   1.386       .  A
C816        C827   1.415       .  A
C817        C818   1.376       .  A
C817        H829   1.082       .  S
C818        H830   1.082       .  S
C819        C820   1.375       .  A
C819        H831   1.082       .  S
C820        H832   1.082       .  S
C821        C822   1.372       .  A
C821        H833   1.082       .  S
C822        H834   1.082       .  S
C823        C824   1.371       .  A
C823        H835   1.082       .  S
C824        H836   1.082       .  S
C825        C851   1.489       .  S
C826        C848   1.485       .  S
C827        C839   1.487       .  S
C828        C844   1.485       .  S
C839        C840   1.341       .  D
C839       H1131   1.086       .  S
C840       C1060   1.475       .  S
C840        H842   1.087       .  S
H841       C1129   1.087       .  S
C843        C844   1.340       .  D
C843       H1135   1.087       .  S
C844        H846   1.086       .  S
H845       C1133   1.087       .  S
C847       C1025   1.473       .  S
C847        C848   1.341       .  D
C847        H849   1.087       .  S
C848       H1140   1.086       .  S
H850       C1138   1.086       .  S
C851        C852   1.342       .  D
C851        H853   1.086       .  S
C852       H1144   1.087       .  S
H854       C1142   1.087       .  S
C855        C856   1.341   1_455  D
C856        H858   1.087       .  S
C859        C860   1.341   1_655  D
C860        H862   1.087       .  S
C863        C864   1.339   1_655  D
C863        H865   1.086       .  S
C867        C868   1.343   1_455  D
C868        H870   1.086       .  S
N871        N872   1.320       .  A
N871       Mn900   2.204       .  S
N873        N874   1.322       .  A
N873       Mn889   2.206   1_554  S
N875        N876   1.318       .  A
N875      Mn1045   2.199       .  S
N876        C880   1.349       .  A
N877        N878   1.322       .  A
N877      Mn1034   2.209       .  S
N878        C879   1.354   1_565  A
C879        C997   1.476       .  S
N881        N882   1.318       .  A
N881       Mn911   2.192   1_554  S
N882        C890   1.348       .  A
N883        N884   1.320       .  A
N883      Mn1034   2.197       .  S
N884        C891   1.351   1_655  A
N885        N886   1.323       .  A
N885      Mn1056   2.220       .  S
N887        N888   1.324       .  A
N887       Mn889   2.216   1_554  S
Mn889      N1022   2.204       .  S
Mn889      N1028   2.201       .  S
C891       C1012   1.480       .  S
N892        N893   1.318       .  A
N892      Mn1045   2.197       .  S
N894        N895   1.318       .  A
N894       Mn912   2.194       .  S
N896        N897   1.325       .  A
N896       Mn900   2.226       .  S
N897        C902   1.358   1_655  A
N898        N899   1.325       .  A
N898      Mn1057   2.221       .  S
N899        C901   1.358       .  A
Mn900      N1020   2.215       .  S
Mn900      N1037   2.194       .  S
C902       C1005   1.474       .  S
N903        N904   1.319       .  A
N903      Mn1056   2.196       .  S
N904        C914   1.350       .  A
N905        N906   1.321       .  A
N905      Mn1057   2.198       .  S
N906        C915   1.354       .  A
N907        N908   1.320       .  A
N907       Mn911   2.208   1_554  S
N909        N910   1.324       .  A
N909       Mn912   2.217       .  S
Mn911      N1030   2.217       .  S
Mn911      N1048   2.211       .  S
Mn912      N1043   2.225       .  S
Mn912      N1050   2.208       .  S
Mn912     Cl1058   2.555       .  S
Cl913     Mn1057   2.552       .  S
C914        C988   1.471       .  S
N916        C921   1.355       .  A
N916        C920   1.352       .  A
N916        H948   1.033       .  S
N917        C924   1.353       .  A
N917        C925   1.352       .  A
N918        C923   1.353       .  A
N918        C922   1.354   1_655  A
N918        H949   1.032       .  S
N919        C926   1.353       .  A
N919        C927   1.352       .  A
C920        C928   1.387       .  A
C920        C936   1.417       .  A
C921        C937   1.420       .  A
C921        C929   1.388       .  A
C922        C930   1.387       .  A
C922        C939   1.420       .  A
C923        C938   1.420       .  A
C923        C931   1.388   1_655  A
C924        C936   1.418       .  A
C924        C932   1.387       .  A
C925        C939   1.418   1_655  A
C925        C933   1.387       .  A
C926        C934   1.387       .  A
C926        C937   1.418       .  A
C927        C935   1.387       .  A
C927        C938   1.418       .  A
C928        C929   1.377       .  A
C928        H940   1.082       .  S
C929        H941   1.082       .  S
C930        C931   1.378       .  A
C930        H942   1.082       .  S
C931        H943   1.082       .  S
C932        C933   1.374       .  A
C932        H944   1.082       .  S
C933        H945   1.082       .  S
C934        C935   1.374       .  A
C934        H946   1.082       .  S
C935        H947   1.082       .  S
C936       C1008   1.486       .  S
C937       C1013   1.490       .  S
C938       C1004   1.487       .  S
C939       C1000   1.488       .  S
N950        C955   1.352       .  A
N950        C954   1.354       .  A
N950        H982   1.032   1_565  S
N951        C958   1.353       .  A
N951        C959   1.352       .  A
N952        C957   1.354       .  A
N952        C956   1.353       .  A
N952        H983   1.032       .  S
N953        C960   1.352       .  A
N953        C961   1.353   1_565  A
C954        C962   1.388       .  A
C954        C970   1.418       .  A
C955        C971   1.416       .  A
C955        C963   1.387       .  A
C956        C964   1.389       .  A
C956        C973   1.418       .  A
C957        C972   1.416       .  A
C957        C965   1.386       .  A
C958        C970   1.420   1_545  A
C958        C966   1.387       .  A
C959        C973   1.417       .  A
C959        C967   1.386       .  A
C960        C968   1.388   1_565  A
C960        C971   1.418       .  A
C961        C969   1.386       .  A
C961        C972   1.416       .  A
C962        C963   1.377       .  A
C962        H974   1.082       .  S
C963        H975   1.082       .  S
C964        C965   1.375       .  A
C964        H976   1.082       .  S
C965        H977   1.082       .  S
C966        C967   1.372       .  A
C966        H978   1.082       .  S
C967        H979   1.082       .  S
C968        C969   1.372       .  A
C968        H980   1.082   1_545  S
C969        H981   1.082       .  S
C970        C996   1.489       .  S
C971        C993   1.482       .  S
C972        C984   1.487       .  S
C973        C989   1.483       .  S
C984        C985   1.342   1_545  D
C985        H987   1.087       .  S
C988        C989   1.340   1_565  D
C989        H991   1.086       .  S
C992        C993   1.340   1_545  D
C992        H994   1.087       .  S
C996        C997   1.344   1_565  D
C996        H998   1.086       .  S
C1000      C1001   1.340   1_455  D
C1001      H1003   1.087       .  S
C1004      C1005   1.339   1_655  D
C1005      H1007   1.087       .  S
C1008      C1009   1.339   1_655  D
C1008      H1010   1.086       .  S
C1012      C1013   1.347   1_455  D
C1013      H1015   1.086       .  S
N1016      N1017   1.320       .  A
N1016     Mn1045   2.202   1_556  S
N1018      N1019   1.320       .  A
N1018     Mn1034   2.199       .  S
N1020      N1021   1.323       .  A
N1021      C1025   1.355       .  A
N1022      N1023   1.320       .  A
N1023      C1024   1.352   1_565  A
C1024      C1142   1.473       .  S
N1026      N1027   1.317       .  A
N1026     Mn1056   2.183       .  S
N1027      C1035   1.347       .  A
N1028      N1029   1.320       .  A
N1029      C1036   1.352   1_655  A
N1030      N1031   1.323       .  A
N1032      N1033   1.323       .  A
N1032     Mn1034   2.216       .  S
C1036      C1157   1.477       .  S
N1037      N1038   1.318       .  A
N1039      N1040   1.318       .  A
N1039     Mn1057   2.189   1_556  S
N1041      N1042   1.324       .  A
N1041     Mn1045   2.214   1_556  S
N1042      C1047   1.356       .  A
N1043      N1044   1.324       .  A
N1044      C1046   1.358       .  A
C1047      C1150   1.476   1_655  S
N1048      N1049   1.325       .  A
N1049      C1059   1.357       .  A
N1050      N1051   1.323       .  A
N1051      C1060   1.355       .  A
N1052      N1053   1.321       .  A
N1052     Mn1056   2.210       .  S
N1054      N1055   1.319       .  A
N1054     Mn1057   2.205   1_556  S
C1059      C1133   1.473   1_565  S
N1061      C1066   1.354       .  A
N1061      C1065   1.353       .  A
N1061      H1093   1.032       .  S
N1062      C1069   1.353       .  A
N1062      C1070   1.352       .  A
N1063      C1068   1.354       .  A
N1063      C1067   1.354   1_655  A
N1063      H1094   1.032       .  S
N1064      C1071   1.353       .  A
N1064      C1072   1.353       .  A
C1065      C1073   1.386       .  A
C1065      C1081   1.416       .  A
C1066      C1082   1.421       .  A
C1066      C1074   1.389       .  A
C1067      C1075   1.386       .  A
C1067      C1084   1.418       .  A
C1068      C1083   1.422       .  A
C1068      C1076   1.389   1_655  A
C1069      C1081   1.417       .  A
C1069      C1077   1.386       .  A
C1070      C1084   1.415   1_655  A
C1070      C1078   1.387       .  A
C1071      C1079   1.387       .  A
C1071      C1082   1.419       .  A
C1072      C1080   1.387       .  A
C1072      C1083   1.419       .  A
C1073      C1074   1.377       .  A
C1073      H1085   1.082       .  S
C1074      H1086   1.082       .  S
C1075      C1076   1.377       .  A
C1075      H1087   1.082       .  S
C1076      H1088   1.081       .  S
C1077      C1078   1.372       .  A
C1077      H1089   1.082       .  S
C1078      H1090   1.082       .  S
C1079      C1080   1.374       .  A
C1079      H1091   1.082       .  S
C1080      H1092   1.082       .  S
C1081      C1153   1.487       .  S
C1082      C1158   1.489       .  S
C1083      C1149   1.491       .  S
C1084      C1145   1.486       .  S
N1095      C1100   1.353       .  A
N1095      C1099   1.353   1_545  A
N1095      H1127   1.027       .  S
N1096      C1103   1.352       .  A
N1096      C1104   1.351       .  A
N1097      C1102   1.356   1_565  A
N1097      C1101   1.356       .  A
N1097      H1128   1.033       .  S
N1098      C1105   1.353       .  A
N1098      C1106   1.352       .  A
C1099      C1107   1.388   1_565  A
C1099      C1115   1.421       .  A
C1100      C1116   1.420       .  A
C1100      C1108   1.388       .  A
C1101      C1109   1.388       .  A
C1101      C1118   1.423       .  A
C1102      C1117   1.421       .  A
C1102      C1110   1.386       .  A
C1103      C1115   1.419       .  A
C1103      C1111   1.388       .  A
C1104      C1118   1.417       .  A
C1104      C1112   1.387       .  A
C1105      C1113   1.387       .  A
C1105      C1116   1.418       .  A
C1106      C1114   1.387       .  A
C1106      C1117   1.417       .  A
C1107      C1108   1.375       .  A
C1107      H1119   1.082       .  S
C1108      H1120   1.082       .  S
C1109      C1110   1.375   1_565  A
C1109      H1121   1.082       .  S
C1110      H1122   1.082       .  S
C1111      C1112   1.371       .  A
C1111      H1123   1.082       .  S
C1112      H1124   1.082       .  S
C1113      C1114   1.371       .  A
C1113      H1125   1.082       .  S
C1114      H1126   1.082       .  S
C1115      C1141   1.486       .  S
C1116      C1138   1.485       .  S
C1117      C1129   1.491       .  S
C1118      C1134   1.489       .  S
C1129      C1130   1.343   1_545  D
C1130      H1132   1.087       .  S
C1133      C1134   1.340   1_545  D
C1134      H1136   1.086       .  S
C1137      C1138   1.341   1_565  D
C1137      H1139   1.087       .  S
C1141      C1142   1.343   1_565  D
C1141      H1143   1.087       .  S
C1145      C1146   1.339   1_455  D
C1146      H1148   1.087       .  S
C1149      C1150   1.342   1_655  D
C1150      H1152   1.087       .  S
C1153      C1154   1.341   1_655  D
C1153      H1155   1.086       .  S
C1157      C1158   1.345   1_455  D
C1158      H1160   1.086       .  S
