geometry optimzed in LAMMPS
_audit_creation_date              2020-12-01 
_audit_creation_method            'lammps2cif' 
_symmetry_space_group_name_H-M    'P1' 
_symmetry_Int_Tables_number       1 
_symmetry_cell_setting            triclinic 
loop_ 
_symmetry_equiv_pos_as_xyz 
  x,y,z 
_cell_length_a                    46.08888083 
_cell_length_b                    46.13232283342225 
_cell_length_c                    50.30840532389293 
_cell_angle_alpha                 89.7192997639484 
_cell_angle_beta                  89.99497733216232 
_cell_angle_gamma                 89.11950673276993 
loop_ 
_atom_site_label 
_atom_site_type_symbol 
_atom_site_fract_x 
_atom_site_fract_y 
_atom_site_fract_z 
_atom_site_charge 
O1          O  0.22178292  0.73752545  0.28291164    -0.73700
O2          O  0.29526868  0.74738237  0.24869433    -0.73700
O3          O  0.26365204  0.77791566  0.28467723    -0.73800
O4          O  0.25344913  0.70675570  0.24706884    -0.73800
O5          O  0.23172225  0.73094951  0.21390303    -0.73700
O6          O  0.24121301  0.80212148  0.25191399    -0.73700
O7          O  0.27313740  0.77183427  0.21589115    -0.73700
O8          O  0.19972816  0.76122057  0.24960845    -0.73800
Ni9        Ni  0.25932466  0.74152196  0.26701753     1.25400
Ni10       Ni  0.23569899  0.76742242  0.23165138     1.25400
C11         C  0.19872855  0.74768284  0.27184100     0.88500
C12         C  0.29617080  0.76121438  0.22657586     0.88400
C13         C  0.25391275  0.80167108  0.27458113     0.88500
C14         C  0.24093863  0.70713652  0.22433648     0.88600
C15         C  0.46866049  0.78004575  0.13086551     0.03900
C16         C  0.46864918  0.78426258  0.10315825    -0.12300
C17         C  0.49482670  0.78655438  0.08902644     0.01400
C18         C  0.52114051  0.78490703  0.10305502    -0.10800
C19         C  0.52163576  0.78063568  0.13073514     0.03900
C20         C  0.49524985  0.77798501  0.14443022    -0.10200
H21         H  0.44827215  0.78499745  0.09259563     0.09500
H22         H  0.54130357  0.78628435  0.09217268     0.07000
H23         H  0.49538710  0.77467404  0.16577044     0.06800
C24         C  0.53071203  0.77548501  0.86106238     0.03900
C25         C  0.53085938  0.78071806  0.88861614    -0.12300
C26         C  0.50478227  0.78144935  0.90326019     0.01400
C27         C  0.47846609  0.77732657  0.88986100    -0.10800
C28         C  0.47784749  0.77248603  0.86234817     0.03900
C29         C  0.50401945  0.77133289  0.84818141    -0.10200
H30         H  0.55134485  0.78402801  0.89853437     0.09500
H31         H  0.45840499  0.77746226  0.90103394     0.07000
H32         H  0.50333270  0.76786021  0.82695478     0.06800
C33         C  0.97014429  0.72582181  0.36140370     0.03900
C34         C  0.96986525  0.72066423  0.38894107    -0.12300
C35         C  0.99590970  0.71832194  0.40336208     0.01400
C36         C  0.02235658  0.72049108  0.38975018    -0.10800
C37         C  0.02317811  0.72522306  0.36215841     0.03900
C38         C  0.99692298  0.72801377  0.34815778    -0.10200
H39         H  0.94925658  0.71924047  0.39908884     0.09500
H40         H  0.04232636  0.71898622  0.40094047     0.07000
H41         H  0.99744155  0.73154884  0.32688730     0.06800
C42         C  0.03264530  0.72284022  0.63041182     0.03900
C43         C  0.00647772  0.72496825  0.64457156    -0.12300
C44         C  0.97973942  0.72222552  0.63151986     0.01400
C45         C  0.97941626  0.71819274  0.60379896    -0.10800
C46         C  0.00540496  0.71686070  0.58920783     0.03900
C47         C  0.03189874  0.71887778  0.60281227    -0.10200
H48         H  0.00694976  0.72809781  0.66590189     0.09500
H49         H  0.95892855  0.71684243  0.59341069     0.07000
H50         H  0.05207893  0.71798643  0.59197713     0.06800
O51         O  0.26116140  0.69231578  0.74971003    -0.73700
O52         O  0.27162782  0.76400460  0.71240755    -0.73700
O53         O  0.30298332  0.73298734  0.74865156    -0.73800
O54         O  0.22997303  0.72342226  0.71356085    -0.73800
O55         O  0.20770242  0.74701051  0.74659729    -0.73700
O56         O  0.28056877  0.75670496  0.78152679    -0.73700
O57         O  0.24927036  0.78759007  0.74539394    -0.73700
O58         O  0.23908729  0.71604761  0.78277104    -0.73800
Ni59       Ni  0.26725246  0.72729810  0.72991809     1.25400
Ni60       Ni  0.24335199  0.75266127  0.76524298     1.25400
C61         C  0.24856090  0.69245926  0.77240806     0.88500
C62         C  0.26195416  0.78756030  0.72274896     0.88400
C63         C  0.30372445  0.74645624  0.77085429     0.88500
C64         C  0.20691845  0.73397323  0.72420136     0.88600
C65         C  0.52022934  0.22300129  0.13583437     0.03900
C66         C  0.52015678  0.21869344  0.10819364    -0.12300
C67         C  0.49404448  0.21773847  0.09389631     0.01400
C68         C  0.46765115  0.22051560  0.10772571    -0.10800
C69         C  0.46720549  0.22475023  0.13538459     0.03900
C70         C  0.49363370  0.22635380  0.14919420    -0.10200
H71         H  0.54048390  0.21688219  0.09754868     0.09500
H72         H  0.44744084  0.22007385  0.09695388     0.07000
H73         H  0.49350584  0.22980152  0.17048262     0.06800
C74         C  0.47948494  0.21725337  0.86587603     0.03900
C75         C  0.47942578  0.21465156  0.89369304    -0.12300
C76         C  0.50552535  0.21318455  0.90801855     0.01400
C77         C  0.53191330  0.21369302  0.89404606    -0.10800
C78         C  0.53234420  0.21630459  0.86620446     0.03900
C79         C  0.50601654  0.21854930  0.85231591    -0.10200
H80         H  0.45900092  0.21450109  0.90431305     0.09500
H81         H  0.55216677  0.21283047  0.90478637     0.07000
H82         H  0.50616764  0.22069896  0.83085334     0.06800
C83         C  0.21789078  0.53027897  0.13680420     0.03900
C84         C  0.21370738  0.53038443  0.10909312    -0.12300
C85         C  0.21158666  0.50415668  0.09503322     0.01400
C86         C  0.21300917  0.47789413  0.10916194    -0.10800
C87         C  0.21661358  0.47735987  0.13684701     0.03900
C88         C  0.21917823  0.50363286  0.15048118    -0.10200
H89         H  0.21297730  0.55087915  0.09857393     0.09500
H90         H  0.21182794  0.45776556  0.09834349     0.07000
H91         H  0.22183209  0.50324564  0.17185306     0.06800
C92         C  0.22957009  0.46718589  0.86770695     0.03900
C93         C  0.23257472  0.49409384  0.85482341    -0.12300
C94         C  0.23022789  0.52016088  0.86891475     0.01400
C95         C  0.22491400  0.51919787  0.89634306    -0.10800
C96         C  0.22173944  0.49266571  0.90972947     0.03900
C97         C  0.22404519  0.46668766  0.89522145    -0.10200
H98         H  0.23639541  0.49500943  0.83365623     0.09500
H99         H  0.22349415  0.53913095  0.90749622     0.07000
H100        H  0.22159180  0.44605771  0.90519849     0.06800
C101        C  0.01912423  0.28004669  0.36715511     0.03900
C102        C  0.99257021  0.27763780  0.35364361    -0.12300
C103        C  0.96606846  0.27903943  0.36752516     0.01400
C104        C  0.96647101  0.28222501  0.39533380    -0.10800
C105        C  0.99281336  0.28412833  0.40924149     0.03900
C106        C  0.01891044  0.28329421  0.39491946    -0.10200
H107        H  0.99253480  0.27500908  0.33225403     0.09500
H108        H  0.94629393  0.28257263  0.40617816     0.07000
H109        H  0.03917866  0.28433078  0.40566583     0.06800
C110        C  0.97920813  0.27016143  0.63685351     0.03900
C111        C  0.00573521  0.26859715  0.65046400    -0.12300
C112        C  0.03205228  0.27221750  0.63688845     0.01400
C113        C  0.03166901  0.27656153  0.60918209    -0.10800
C114        C  0.00533410  0.27741432  0.59509417     0.03900
C115        C  0.97925213  0.27432250  0.60917360    -0.10200
H116        H  0.00584608  0.26532801  0.67181022     0.09500
H117        H  0.05187333  0.27873274  0.59858777     0.07000
H118        H  0.95891688  0.27477786  0.59843074     0.06800
C119        C  0.27207631  0.02940522  0.36687681     0.03900
C120        C  0.26884434  0.00329914  0.35312316    -0.12300
C121        C  0.27036427  0.97655550  0.36658428     0.01400
C122        C  0.27511605  0.97621470  0.39418939    -0.10800
C123        C  0.27781198  0.00224240  0.40841133     0.03900
C124        C  0.27632743  0.02867446  0.39449009    -0.10200
H125        H  0.26573627  0.00387376  0.33179709     0.09500
H126        H  0.27615584  0.95564765  0.40466249     0.07000
H127        H  0.27769322  0.04879660  0.40519114     0.06800
C128        C  0.27775725  0.96666418  0.63634730     0.03900
C129        C  0.28030260  0.96724385  0.60860787    -0.12300
C130        C  0.28209927  0.99367188  0.59464937     0.01400
C131        C  0.28190044  0.01974044  0.60904263    -0.10800
C132        C  0.27944583  0.01966741  0.63691147     0.03900
C133        C  0.27753059  0.99293254  0.65035951    -0.10200
H134        H  0.28052886  0.94690234  0.59805138     0.09500
H135        H  0.28316988  0.04019571  0.59847213     0.07000
H136        H  0.27627379  0.99240668  0.67176988     0.06800
O137        O  0.25148470  0.19695155  0.74814697    -0.73700
O138        O  0.24019868  0.26755531  0.78681862    -0.73700
O139        O  0.20861701  0.23769250  0.75098747    -0.73800
O140        O  0.28281623  0.22689736  0.78384267    -0.73800
O141        O  0.30367898  0.25138062  0.75076186    -0.73700
O142        O  0.22949023  0.26209028  0.71785882    -0.73700
O143        O  0.26078400  0.29208198  0.75363529    -0.73700
O144        O  0.27205773  0.22134143  0.71487187    -0.73800
Ni145      Ni  0.24503724  0.23138482  0.76861356     1.25400
Ni146      Ni  0.26726271  0.25761150  0.73310239     1.25400
C147        C  0.26346701  0.19751071  0.72518454     0.88500
C148        C  0.24871439  0.29142621  0.77657289     0.88400
C149        C  0.20693748  0.25165569  0.72896518     0.88500
C150        C  0.30535044  0.23744661  0.77279927     0.88600
O151        O  0.27012725  0.23817773  0.21849878    -0.73700
O152        O  0.19671721  0.24781402  0.25331463    -0.73700
O153        O  0.22813380  0.27975459  0.21871897    -0.73800
O154        O  0.23885254  0.20631604  0.25309714    -0.73800
O155        O  0.26081120  0.22801285  0.28700561    -0.73700
O156        O  0.24982755  0.30157023  0.25270166    -0.73700
O157        O  0.21853107  0.26941372  0.28732808    -0.73700
O158        O  0.29216338  0.25990619  0.25232278    -0.73800
Ni159      Ni  0.23268213  0.24226292  0.23470682     1.25400
Ni160      Ni  0.25612511  0.26552765  0.27105900     1.25400
C161        C  0.29318239  0.24733863  0.22965428     0.88500
C162        C  0.19555564  0.26007960  0.27608477     0.88400
C163        C  0.23719623  0.30268869  0.23003970     0.88500
C164        C  0.25159901  0.20513488  0.27569094     0.88600
O165        O  0.75002954  0.20820312  0.25138022    -0.73700
O166        O  0.75957354  0.28017959  0.21464004    -0.73700
O167        O  0.79141459  0.24920492  0.25048769    -0.73800
O168        O  0.71822377  0.23915337  0.21573958    -0.73800
O169        O  0.69581157  0.26232748  0.24892145    -0.73700
O170        O  0.76896996  0.27224437  0.28373589    -0.73700
O171        O  0.73738923  0.30352018  0.24785730    -0.73700
O172        O  0.72782950  0.23131408  0.28473051    -0.73800
Ni173      Ni  0.75560512  0.24338771  0.23187350     1.25400
Ni174      Ni  0.73166910  0.26823016  0.26746436     1.25400
C175        C  0.73758291  0.20793605  0.27413361     0.88500
C176        C  0.75007662  0.30366842  0.22519562     0.88400
C177        C  0.79213582  0.26207457  0.27299438     0.88500
C178        C  0.69499161  0.24890590  0.22669495     0.88600
C179        C  0.76629752  0.48003546  0.13433857     0.03900
C180        C  0.77020888  0.47926872  0.10663902    -0.12300
C181        C  0.77268888  0.50500138  0.09182906     0.01400
C182        C  0.77098498  0.53175059  0.10505133    -0.10800
C183        C  0.76715947  0.53297502  0.13272868     0.03900
C184        C  0.76485356  0.50701213  0.14715316    -0.10200
H185        H  0.77137905  0.45857955  0.09656144     0.09500
H186        H  0.77205939  0.55159592  0.09369896     0.07000
H187        H  0.76230502  0.50796008  0.16849287     0.06800
C188        C  0.77751981  0.52642580  0.86432208     0.03900
C189        C  0.77617948  0.50019389  0.85028379    -0.12300
C190        C  0.77702401  0.47347577  0.86370523     0.01400
C191        C  0.77921341  0.47309128  0.89147448    -0.10800
C192        C  0.78042050  0.49898764  0.90595796     0.03900
C193        C  0.77999029  0.52560060  0.89217439    -0.10200
H194        H  0.77526296  0.50049359  0.82884546     0.09500
H195        H  0.78004740  0.45244557  0.90174873     0.07000
H196        H  0.78086152  0.54570386  0.90317233     0.06800
C197        C  0.71603371  0.97969586  0.36315613     0.03900
C198        C  0.71919025  0.00693569  0.35096409    -0.12300
C199        C  0.71849369  0.03249196  0.36603783     0.01400
C200        C  0.71488933  0.03050202  0.39375294    -0.10800
C201        C  0.71185502  0.00347072  0.40636424     0.03900
C202        C  0.71202859  0.97822681  0.39079914    -0.10200
H203        H  0.72183364  0.00838088  0.32963383     0.09500
H204        H  0.71502965  0.04989526  0.40572632     0.07000
H205        H  0.70945805  0.95726032  0.40013020     0.06800
C206        C  0.72549979  0.02840635  0.63435945     0.03900
C207        C  0.72801471  0.00183098  0.64772535    -0.12300
C208        C  0.72557439  0.97551783  0.63403618     0.01400
C209        C  0.72012684  0.97605726  0.60652054    -0.10800
C210        C  0.71773561  0.00259566  0.59263719     0.03900
C211        C  0.72041317  0.02862825  0.60685355    -0.10200
H212        H  0.73161408  0.00176566  0.66898541     0.09500
H213        H  0.71842704  0.95581141  0.59584883     0.07000
H214        H  0.71952970  0.04913932  0.59648040     0.06800
O215        O  0.75073673  0.29430936  0.75618921    -0.73700
O216        O  0.74168580  0.22239583  0.71994087    -0.73700
O217        O  0.70948005  0.25299622  0.75520636    -0.73800
O218        O  0.78279459  0.26352635  0.72095114    -0.73800
O219        O  0.80510723  0.24047571  0.75447312    -0.73700
O220        O  0.73163552  0.22950630  0.78855881    -0.73700
O221        O  0.76413525  0.19898882  0.75318752    -0.73700
O222        O  0.77265606  0.27110507  0.78984166    -0.73800
Ni223      Ni  0.74537379  0.25914952  0.73691627     1.25400
Ni224      Ni  0.76917436  0.23419920  0.77274674     1.25400
C225        C  0.76326442  0.29456522  0.77888091     0.88500
C226        C  0.75152471  0.19893761  0.73048629     0.88400
C227        C  0.70848716  0.23927680  0.77737729     0.88500
C228        C  0.80595461  0.25365314  0.73201231     0.88600
O229        O  0.73799923  0.70722349  0.24931485    -0.73700
O230        O  0.72606828  0.77977490  0.28458630    -0.73700
O231        O  0.69590415  0.74881484  0.24851782    -0.73800
O232        O  0.76813310  0.73813696  0.28528695    -0.73800
O233        O  0.79100178  0.76065134  0.25217970    -0.73700
O234        O  0.71869079  0.77160920  0.21552294    -0.73700
O235        O  0.74898037  0.80253939  0.25165116    -0.73700
O236        O  0.76043670  0.72996014  0.21606989    -0.73800
Ni237      Ni  0.73120594  0.74270052  0.26810415     1.25400
Ni238      Ni  0.75563131  0.76702175  0.23270188     1.25400
C239        C  0.75094482  0.70673187  0.22679363     0.88500
C240        C  0.73557605  0.80305919  0.27395469     0.88400
C241        C  0.69546099  0.76173035  0.22590655     0.88500
C242        C  0.79145294  0.74760342  0.27471890     0.88600
O243        O  0.76383946  0.79973352  0.74721895    -0.73700
O244        O  0.77443678  0.72856698  0.78610672    -0.73700
O245        O  0.80598748  0.75802239  0.74952583    -0.73800
O246        O  0.73249409  0.77024248  0.78387020    -0.73800
O247        O  0.71045339  0.74635922  0.75132081    -0.73700
O248        O  0.78386972  0.73435144  0.71688929    -0.73700
O249        O  0.75261999  0.70485506  0.75330774    -0.73700
O250        O  0.74160019  0.77579066  0.71481398    -0.73800
Ni251      Ni  0.76999212  0.76502112  0.76784317     1.25400
Ni252      Ni  0.74638431  0.73948565  0.73293094     1.25400
C253        C  0.75082676  0.79943068  0.72470894     0.88500
C254        C  0.76513230  0.70501812  0.77601360     0.88400
C255        C  0.80695968  0.74417698  0.72751414     0.88500
C256        C  0.70944027  0.76023040  0.77330239     0.88600
C257        C  0.73601369  0.14323421  0.68607172     0.30500
C258        C  0.72455494  0.13109927  0.66293853    -0.35800
C259        C  0.72818483  0.10106650  0.66034388     0.16500
C260        C  0.74207912  0.08407417  0.67920076     0.22300
C261        C  0.75368534  0.09623413  0.70234817    -0.33900
C262        C  0.75005508  0.12634467  0.70496101     0.16400
O263        O  0.73476838  0.17081944  0.69258315    -0.25900
C264        C  0.74815025  0.17170352  0.71596381     0.06200
C265        C  0.75819143  0.14468281  0.72468184    -0.30800
O266        O  0.74277505  0.05642466  0.67270258    -0.22700
C267        C  0.72929800  0.05568999  0.64927752    -0.02700
C268        C  0.71969315  0.08294459  0.64070665    -0.17100
H269        H  0.71348748  0.14416627  0.64803744     0.20900
H270        H  0.76464811  0.08314017  0.71729329     0.19300
H271        H  0.76966362  0.13936957  0.74288063     0.19200
H272        H  0.70789249  0.08869030  0.62280453     0.15100
C273        C  0.74852618  0.87049755  0.70000940     0.30500
C274        C  0.75465300  0.90012314  0.69957429    -0.35800
C275        C  0.74306208  0.91598612  0.67817070     0.16500
C276        C  0.72663073  0.90369589  0.65840482     0.22300
C277        C  0.72041568  0.87397727  0.65885949    -0.33900
C278        C  0.73202762  0.85804628  0.68033633     0.16400
O279        O  0.75728689  0.85164248  0.71817829    -0.25900
C280        C  0.74634495  0.82671906  0.71004029     0.06200
C281        C  0.73041332  0.82936683  0.68661347    -0.30800
O282        O  0.71831606  0.92276529  0.64013969    -0.22700
C283        C  0.72941616  0.94763836  0.64848747    -0.02700
C284        C  0.74510092  0.94452869  0.67203333    -0.17100
H285        H  0.76761041  0.91011690  0.71484730     0.20900
H286        H  0.70754941  0.86396875  0.64353193     0.19300
H287        H  0.71926418  0.81260505  0.67584666     0.19200
H288        H  0.75680614  0.96078018  0.68293826     0.15100
C289        C  0.71444838  0.90846964  0.33844118     0.30500
C290        C  0.70980436  0.87851426  0.33961314    -0.35800
C291        C  0.71895949  0.86257098  0.31740839     0.16500
C292        C  0.73183191  0.87518870  0.29553926     0.22300
C293        C  0.73626557  0.90519804  0.29429269    -0.33900
C294        C  0.72704583  0.92115175  0.31650165     0.16400
O295        O  0.70857261  0.92729498  0.35738484    -0.25900
C296        C  0.71733950  0.95252666  0.34749166     0.06200
C297        C  0.72898035  0.94992137  0.32199150    -0.30800
O298        O  0.73933879  0.85603705  0.27729826    -0.22700
C299        C  0.73107821  0.83085325  0.28761313    -0.02700
C300        C  0.71822949  0.83361648  0.31250987    -0.17100
H301        H  0.70011447  0.86829850  0.35679784     0.20900
H302        H  0.74651682  0.91534208  0.27735238     0.19300
H303        H  0.73847511  0.96647159  0.30957689     0.19200
H304        H  0.70988286  0.81669926  0.32524412     0.15100
C305        C  0.70649692  0.01599570  0.47525042     0.30500
C306        C  0.70472509  0.03289233  0.49831353    -0.35800
C307        C  0.70790888  0.01788130  0.52247942     0.16500
C308        C  0.71240950  0.98831257  0.52394446     0.22300
C309        C  0.71386989  0.97136562  0.50086431    -0.33900
C310        C  0.71076357  0.98638675  0.47666880     0.16400
O311        O  0.70572456  0.02572364  0.45057043    -0.25900
C312        C  0.70943519  0.00204775  0.43580597     0.06200
C313        C  0.71258362  0.97689047  0.45114299    -0.30800
O314        O  0.71595680  0.97900037  0.54860539    -0.22700
C315        C  0.71373016  0.00292667  0.56326848    -0.02700
C316        C  0.70854742  0.02775964  0.54786996    -0.17100
H317        H  0.70178559  0.05620059  0.49745940     0.20900
H318        H  0.71781168  0.94819210  0.50168369     0.19300
H319        H  0.71680795  0.95489829  0.44470545     0.19200
H320        H  0.70597808  0.05004353  0.55410274     0.15100
C321        C  0.77915494  0.40124463  0.84184512     0.30500
C322        C  0.78365640  0.37121631  0.84427997    -0.35800
C323        C  0.77651655  0.35475080  0.82194774     0.16500
C324        C  0.76566260  0.36701292  0.79884619     0.22300
C325        C  0.76141487  0.39706355  0.79634292    -0.33900
C326        C  0.76858997  0.41350894  0.81866886     0.16400
O327        O  0.78358644  0.42060129  0.86048834    -0.25900
C328        C  0.77593713  0.44570832  0.84913832     0.06200
C329        C  0.76640932  0.44253232  0.82302221    -0.30800
O330        O  0.75968068  0.34750726  0.78070991    -0.22700
C331        C  0.76687412  0.32243459  0.79229547    -0.02700
C332        C  0.77758220  0.32558531  0.81794793    -0.17100
H333        H  0.79179672  0.36136416  0.86242463     0.20900
H334        H  0.75278666  0.40688609  0.77837166     0.19300
H335        H  0.75833150  0.45894569  0.80936686     0.19200
H336        H  0.78467972  0.30882606  0.83171789     0.15100
C337        C  0.77951788  0.59904470  0.84220030     0.30500
C338        C  0.78438268  0.62898387  0.84395828    -0.35800
C339        C  0.77741220  0.64544321  0.82120243     0.16500
C340        C  0.76635823  0.63322549  0.79841636     0.22300
C341        C  0.76162814  0.60341122  0.79664819    -0.33900
C342        C  0.76865830  0.58703933  0.81928568     0.16400
O343        O  0.78408535  0.57950495  0.86107273    -0.25900
C344        C  0.77619327  0.55462217  0.85000704     0.06200
C345        C  0.76633074  0.55820382  0.82398684    -0.30800
O346        O  0.76083014  0.65250928  0.77967788    -0.22700
C347        C  0.76851293  0.67748118  0.79045098    -0.02700
C348        C  0.77904824  0.67448316  0.81627734    -0.17100
H349        H  0.79282751  0.63875763  0.86181921     0.20900
H350        H  0.75290326  0.59366998  0.77888289     0.19300
H351        H  0.75805275  0.54215110  0.81047211     0.19200
H352        H  0.78642759  0.69125291  0.82952797     0.15100
C353        C  0.76181191  0.64995035  0.18187378     0.30500
C354        C  0.76743547  0.63725573  0.15710041    -0.35800
C355        C  0.76587791  0.60696235  0.15622921     0.16500
C356        C  0.75940095  0.59030673  0.17820263     0.22300
C357        C  0.75371201  0.60298112  0.20297839    -0.33900
C358        C  0.75506453  0.63329041  0.20382712     0.16400
O359        O  0.76169629  0.67790323  0.18712469    -0.25900
C360        C  0.75459642  0.67916303  0.21272042     0.06200
C361        C  0.75017342  0.65208355  0.22415918    -0.30800
O362        O  0.75906491  0.56240980  0.17283561    -0.22700
C363        C  0.76532936  0.56101646  0.14701539    -0.02700
C364        C  0.76979677  0.58826344  0.13568730    -0.17100
H365        H  0.77247360  0.65010752  0.13969464     0.20900
H366        H  0.74840453  0.59012991  0.22031493     0.19300
H367        H  0.74409370  0.64704773  0.24442682     0.19200
H368        H  0.77525740  0.59380893  0.11540909     0.15100
C369        C  0.78644967  0.51265870  0.97450062     0.30500
C370        C  0.79101634  0.52949589  0.99719417    -0.35800
C371        C  0.78504082  0.51608834  0.02161427     0.16500
C372        C  0.77545725  0.48799693  0.02366892     0.22300
C373        C  0.77118973  0.47102734  0.00097441    -0.33900
C374        C  0.77702203  0.48450429  0.97652722     0.16400
O375        O  0.78922983  0.52134255  0.94963017    -0.25900
C376        C  0.78163592  0.49840425  0.93541245     0.06200
C377        C  0.77385534  0.47482868  0.95123845    -0.30800
O378        O  0.77026156  0.48024201  0.04847322    -0.22700
C379        C  0.77645755  0.50374107  0.06256055    -0.02700
C380        C  0.78595273  0.52663987  0.04675287    -0.17100
H381        H  0.79806193  0.55172932  0.99587830     0.20900
H382        H  0.76328154  0.44909321  0.00224836     0.19300
H383        H  0.76593564  0.45391629  0.94519945     0.19200
H384        H  0.79244832  0.54808770  0.05268698     0.15100
C385        C  0.76624358  0.40823282  0.15835129     0.30500
C386        C  0.77009293  0.37806900  0.15694875    -0.35800
C387        C  0.76310223  0.36247388  0.17999998     0.16500
C388        C  0.75293715  0.37561156  0.20284809     0.22300
C389        C  0.74929323  0.40580061  0.20429958    -0.33900
C390        C  0.75634376  0.42138493  0.18124716     0.16400
O391        O  0.77097417  0.42694824  0.13901589    -0.25900
C392        C  0.76415044  0.45255873  0.14961359     0.06200
C393        C  0.75486284  0.45029087  0.17594585    -0.30800
O394        O  0.74708398  0.35676897  0.22182608    -0.22700
C395        C  0.75371526  0.33125726  0.21101003    -0.02700
C396        C  0.76386873  0.33348486  0.18505198    -0.17100
H397        H  0.77776468  0.36748504  0.13906961     0.20900
H398        H  0.74128731  0.41637063  0.22206613     0.19300
H399        H  0.74756339  0.46721190  0.18927951     0.19200
H400        H  0.77043475  0.31621807  0.17174811     0.15100
C401        C  0.72751721  0.15070307  0.31904066     0.30500
C402        C  0.72113764  0.13755593  0.34352107    -0.35800
C403        C  0.72264504  0.10716057  0.34406462     0.16500
C404        C  0.72983407  0.09085410  0.32206586     0.22300
C405        C  0.73642459  0.10397946  0.29765450    -0.33900
C406        C  0.73503300  0.13433593  0.29712381     0.16400
O407        O  0.72716160  0.17877101  0.31390021    -0.25900
C408        C  0.73471183  0.18033107  0.28840874     0.06200
C409        C  0.73995317  0.15338116  0.27698023    -0.30800
O410        O  0.72940244  0.06278161  0.32691519    -0.22700
C411        C  0.72193528  0.06088401  0.35244089    -0.02700
C412        C  0.71748992  0.08799080  0.36410051    -0.17100
H413        H  0.71527714  0.15012236  0.36087551     0.20900
H414        H  0.74210136  0.09139666  0.28026012     0.19300
H415        H  0.74629354  0.14856722  0.25673884     0.19200
H416        H  0.71094586  0.09309599  0.38420265     0.15100
C417        C  0.27854498  0.09231436  0.65875707     0.30500
C418        C  0.28019451  0.12261262  0.65620769    -0.35800
C419        C  0.27478877  0.13862192  0.67942985     0.16500
C420        C  0.26798461  0.12565690  0.70337196     0.22300
C421        C  0.26647983  0.09546131  0.70591332    -0.33900
C422        C  0.27208449  0.07952244  0.68280528     0.16400
O423        O  0.28228179  0.07312153  0.63963035    -0.25900
C424        C  0.27827187  0.04760781  0.65157650     0.06200
C425        C  0.27190890  0.05046577  0.67857072    -0.30800
O426        O  0.26320335  0.14460115  0.72243047    -0.22700
C427        C  0.26721332  0.17011376  0.71070708    -0.02700
C428        C  0.27451831  0.16778540  0.68392247    -0.17100
H429        H  0.28519533  0.13296079  0.63744207     0.20900
H430        H  0.26115959  0.08511274  0.72460447     0.19300
H431        H  0.26713264  0.03385528  0.69308720     0.19200
H432        H  0.27862064  0.18503562  0.66981772     0.15100
C433        C  0.26705921  0.14672039  0.31803380     0.30500
C434        C  0.27703889  0.13303421  0.34126267    -0.35800
C435        C  0.27320401  0.10302234  0.34255989     0.16500
C436        C  0.26057895  0.08746721  0.32239796     0.22300
C437        C  0.25067472  0.10114460  0.29908428    -0.33900
C438        C  0.25438571  0.13121648  0.29781710     0.16400
O439        O  0.26793557  0.17468824  0.31286394    -0.25900
C440        C  0.25565402  0.17712574  0.28904385     0.06200
C441        C  0.24681525  0.15081228  0.27867024    -0.30800
O442        O  0.25879961  0.05964428  0.32809589    -0.22700
C443        C  0.27030677  0.05732927  0.35231120    -0.02700
C444        C  0.27977851  0.08373894  0.36217425    -0.17100
H445        H  0.28681318  0.14499107  0.35732001     0.20900
H446        H  0.24053129  0.08923904  0.28319324     0.19300
H447        H  0.23614729  0.14679886  0.25990476     0.19200
H448        H  0.29006743  0.08830950  0.38098539     0.15100
C449        C  0.28147148  0.98537385  0.47667371     0.30500
C450        C  0.27965534  0.96741488  0.49911256    -0.35800
C451        C  0.28212380  0.98118568  0.52374244     0.16500
C452        C  0.28614645  0.01058113  0.52626546     0.22300
C453        C  0.28817398  0.02858271  0.50376956    -0.33900
C454        C  0.28563426  0.01477197  0.47907340     0.16400
O455        O  0.27869789  0.97714724  0.45177046    -0.25900
C456        C  0.28107035  0.00157172  0.43780056     0.06200
C457        C  0.28558060  0.02570553  0.45391905    -0.30800
O458        O  0.28696407  0.01884494  0.55133744    -0.22700
C459        C  0.28349214  0.99436475  0.56512269    -0.02700
C460        C  0.28038589  0.97026771  0.54876762    -0.17100
H461        H  0.27608505  0.94436212  0.49749513     0.20900
H462        H  0.29103659  0.05174485  0.50540068     0.19300
H463        H  0.28806014  0.04818025  0.44830405     0.19200
H464        H  0.27669568  0.94791725  0.55415095     0.15100
C465        C  0.08935357  0.26168614  0.68227430     0.30500
C466        C  0.10275382  0.25152474  0.70565218    -0.35800
C467        C  0.13288026  0.25505755  0.70708324     0.16500
C468        C  0.14860065  0.26796286  0.68700768     0.22300
C469        C  0.13519053  0.27827577  0.66378229    -0.33900
C470        C  0.10517949  0.27447927  0.66225668     0.16400
O471        O  0.06165525  0.25959814  0.67619971    -0.25900
C472        C  0.05971074  0.27101747  0.65187183     0.06200
C473        C  0.08622216  0.28082078  0.64233460    -0.30800
O474        O  0.17654865  0.26856513  0.69218733    -0.22700
C475        C  0.17883788  0.25584486  0.71585649    -0.02700
C476        C  0.15239183  0.24695299  0.72615442    -0.17100
H477        H  0.09064148  0.24112699  0.72136899     0.20900
H478        H  0.14739646  0.28808173  0.64780302     0.19300
H479        H  0.09109449  0.29097056  0.62346280     0.19200
H480        H  0.14824002  0.23595885  0.74479678     0.15100
C481        C  0.92244307  0.25866435  0.68236997     0.30500
C482        C  0.90950508  0.24905295  0.70603284    -0.35800
C483        C  0.87951708  0.25423926  0.70830536     0.16500
C484        C  0.86345038  0.26807350  0.68871776     0.22300
C485        C  0.87639710  0.27775487  0.66515870    -0.33900
C486        C  0.90626841  0.27234576  0.66280969     0.16400
O487        O  0.95009052  0.25595450  0.67589619    -0.25900
C488        C  0.95161014  0.26785790  0.65175200     0.06200
C489        C  0.92489585  0.27844793  0.64270169    -0.30800
O490        O  0.83565266  0.27004805  0.69464133    -0.22700
C491        C  0.83381436  0.25729956  0.71833261    -0.02700
C492        C  0.86043381  0.24709034  0.72787139    -0.17100
H493        H  0.92187842  0.23806168  0.72145109     0.20900
H494        H  0.86397236  0.28843315  0.64959314     0.19300
H495        H  0.91986091  0.28952714  0.62423060     0.19200
H496        H  0.86493165  0.23562088  0.74627074     0.15100
C497        C  0.07729334  0.26843850  0.32263213     0.30500
C498        C  0.09106403  0.25864208  0.29935239    -0.35800
C499        C  0.12129956  0.26199149  0.29831993     0.16500
C500        C  0.13687727  0.27419230  0.31874001     0.22300
C501        C  0.12312054  0.28397121  0.34194410    -0.33900
C502        C  0.09297447  0.28055877  0.34297921     0.16400
O503        O  0.04931146  0.26705252  0.32812260    -0.25900
C504        C  0.04703571  0.27831201  0.35241134     0.06200
C505        C  0.07364438  0.28722967  0.36246127    -0.30800
O506        O  0.16492027  0.27518057  0.31366315    -0.22700
C507        C  0.16742320  0.26345361  0.28965401    -0.02700
C508        C  0.14098827  0.25480747  0.27914072    -0.17100
H509        H  0.07908990  0.24895110  0.28325595     0.20900
H510        H  0.13511381  0.29344240  0.35814347     0.19300
H511        H  0.07833677  0.29718877  0.38136717     0.19200
H512        H  0.13691806  0.24471004  0.26015377     0.15100
C513        C  0.84916227  0.27339178  0.31759988     0.30500
C514        C  0.86192930  0.28120915  0.34177357    -0.35800
C515        C  0.89220148  0.27813085  0.34316933     0.16500
C516        C  0.90883825  0.26816078  0.32225160     0.22300
C517        C  0.89604528  0.26019021  0.29808094    -0.40300
C518        C  0.86572318  0.26316451  0.29668985     0.16400
O519        O  0.82124221  0.27459317  0.31195676    -0.25900
C520        C  0.81983887  0.26492468  0.28712631     0.06200
C521        C  0.84684140  0.25741390  0.27661534    -0.30800
O522        O  0.93679890  0.26726070  0.32792480    -0.22700
C523        C  0.93817670  0.27664367  0.35290716    -0.02700
C524        C  0.91091580  0.28376013  0.36330751    -0.17100
H525        H  0.84915135  0.28914580  0.35833728     0.20900
H526        H  0.90882942  0.25224994  0.28152645     0.19300
H527        H  0.85178692  0.24896861  0.25707012     0.19200
H528        H  0.90543301  0.29222416  0.38270848     0.15100
C529        C  0.01113174  0.28686574  0.47716924     0.30500
C530        C  0.02995237  0.28669578  0.49910889    -0.35800
C531        C  0.01670426  0.28511714  0.52416828     0.16500
C532        C  0.98704652  0.28391105  0.52737149     0.22300
C533        C  0.96824483  0.28431578  0.50546089    -0.33900
C534        C  0.98148020  0.28577680  0.48042743     0.16400
O535        O  0.01883294  0.28696125  0.45195367    -0.25900
C536        C  0.99380804  0.28592318  0.43872466     0.06200
C537        C  0.96979360  0.28526256  0.45561119    -0.30800
O538        O  0.97935494  0.28145367  0.55246749    -0.22700
C539        C  0.00436332  0.28105294  0.56574207    -0.02700
C540        C  0.02839952  0.28337815  0.54899332    -0.17100
H541        H  0.05328684  0.28715080  0.49678096     0.20900
H542        H  0.94495429  0.28298046  0.50776105     0.19300
H543        H  0.94703284  0.28384657  0.45067338     0.19200
H544        H  0.05121036  0.28322428  0.55401417     0.15100
C545        C  0.23128110  0.39519550  0.84427757     0.30500
C546        C  0.22859790  0.36494628  0.84588971    -0.35800
C547        C  0.23542434  0.34948608  0.82267747     0.16500
C548        C  0.24436751  0.36288214  0.79955232     0.22300
C549        C  0.24688339  0.39306511  0.79792523    -0.33900
C550        C  0.23999924  0.40846335  0.82107199     0.16400
O551        O  0.22643453  0.41390372  0.86360136    -0.25900
C552        C  0.23204473  0.43959357  0.85264622     0.06200
C553        C  0.24060173  0.43733188  0.82610179    -0.30800
O554        O  0.25014345  0.34431538  0.78038031    -0.22700
C555        C  0.24470324  0.31864496  0.79125950    -0.02700
C556        C  0.23541883  0.32049991  0.81754882    -0.17100
H557        H  0.22184059  0.35421988  0.86399076     0.20900
H558        H  0.25390366  0.40378830  0.77990649     0.19300
H559        H  0.24684574  0.45419064  0.81234037     0.19200
H560        H  0.22982616  0.30303371  0.83095697     0.15100
C561        C  0.22283252  0.36044842  0.18663190     0.30500
C562        C  0.21432795  0.37357215  0.16266304    -0.35800
C563        C  0.21693669  0.40373265  0.16143719     0.16500
C564        C  0.22704463  0.41994948  0.18234124     0.22300
C565        C  0.23551069  0.40682124  0.20639494    -0.33900
C566        C  0.23306940  0.37657684  0.20759312     0.16400
O567        O  0.22271087  0.33247971  0.19187496    -0.25900
C568        C  0.23309148  0.33060845  0.21647577     0.06200
C569        C  0.23990564  0.35734210  0.22731290    -0.30800
O570        O  0.22800469  0.44782588  0.17660606    -0.22700
C571        C  0.21849016  0.44952477  0.15162928    -0.02700
C572        C  0.21118704  0.42260911  0.14128611    -0.17100
H573        H  0.20651662  0.36110083  0.14603253     0.20900
H574        H  0.24369703  0.41926175  0.22288719     0.19300
H575        H  0.24878323  0.36186486  0.24674902     0.19200
H576        H  0.20280169  0.41739783  0.12184031     0.15100
C577        C  0.20939677  0.48575983  0.02723622     0.30500
C578        C  0.21177338  0.46700763  0.00541834    -0.35800
C579        C  0.21213423  0.48029664  0.98029881     0.16500
C580        C  0.21003077  0.50992719  0.97695848     0.22300
C581        C  0.20723326  0.52863092  0.99874575    -0.33900
C582        C  0.20717203  0.51537455  0.02386067     0.16400
O583        O  0.21058255  0.47814370  0.05245848    -0.25900
C584        C  0.20917294  0.50315739  0.06559988     0.06200
C585        C  0.20685635  0.52710949  0.04866623    -0.30800
O586        O  0.21256041  0.51784967  0.95192522    -0.22700
C587        C  0.21635806  0.49304220  0.93883310    -0.02700
C588        C  0.21613466  0.46886215  0.95560564    -0.17100
H589        H  0.21416408  0.44377636  0.00790866     0.20900
H590        H  0.20619350  0.55194657  0.99631148     0.19300
H591        H  0.20592813  0.54988513  0.05362500     0.19200
H592        H  0.21948334  0.44626192  0.95069323     0.15100
C593        C  0.36358795  0.22113294  0.81484476     0.30500
C594        C  0.37701310  0.21011476  0.83779346    -0.35800
C595        C  0.40677832  0.21507735  0.83998663     0.16500
C596        C  0.42238062  0.22958794  0.82081614     0.22300
C597        C  0.40894719  0.24056367  0.79776969    -0.33900
C598        C  0.37906151  0.23582350  0.79566832     0.16400
O599        O  0.33581482  0.21960705  0.80915164    -0.25900
C600        C  0.33339685  0.23349477  0.78604627     0.06200
C601        C  0.35958236  0.24408408  0.77663141    -0.30800
O602        O  0.44995696  0.23202944  0.82719979    -0.22700
C603        C  0.45197854  0.21914154  0.85088188    -0.02700
C604        C  0.42572478  0.20810324  0.85974065    -0.17100
H605        H  0.36499940  0.19882641  0.85304817     0.20900
H606        H  0.42087086  0.25227204  0.78272882     0.19300
H607        H  0.36356338  0.25633703  0.75862706     0.19200
H608        H  0.42118168  0.19652506  0.87799409     0.15100
C609        C  0.64981260  0.22124445  0.81816932     0.30500
C610        C  0.63614266  0.21032512  0.84091462    -0.35800
C611        C  0.60594791  0.21410254  0.84194225     0.16500
C612        C  0.59017358  0.22738797  0.82188480     0.22300
C613        C  0.60381142  0.23808745  0.79899170    -0.33900
C614        C  0.63408748  0.23459672  0.79807900     0.16400
O615        O  0.67796199  0.22101097  0.81354215    -0.25900
C616        C  0.68033523  0.23445445  0.79021275     0.06200
C617        C  0.65374176  0.24333220  0.77961557    -0.30800
O618        O  0.56227123  0.22944418  0.82748490    -0.22700
C619        C  0.56014716  0.21750840  0.85155633    -0.02700
C620        C  0.58671641  0.20740617  0.86139425    -0.17100
H621        H  0.64827184  0.20016797  0.85695711     0.20900
H622        H  0.59174912  0.24892355  0.78327614     0.19300
H623        H  0.64957102  0.25480901  0.76115588     0.19200
H624        H  0.59139847  0.19688245  0.88020932     0.15100
C625        C  0.35063258  0.23238294  0.18596427     0.30500
C626        C  0.36348763  0.22314102  0.16213956    -0.35800
C627        C  0.39360873  0.22636827  0.16030573     0.16500
C628        C  0.41003863  0.23767513  0.18055694     0.22300
C629        C  0.39718279  0.24688421  0.20444896    -0.33900
C630        C  0.36697875  0.24384439  0.20624139     0.16400
O631        O  0.32273783  0.23189795  0.19164908    -0.25900
C632        C  0.32108057  0.24328376  0.21585763     0.06200
C633        C  0.34795710  0.25106655  0.22599311    -0.30800
O634        O  0.43787030  0.23860792  0.17453514    -0.22700
C635        C  0.43935716  0.22788673  0.15000983    -0.02700
C636        C  0.41232184  0.21988921  0.14022656    -0.17100
H637        H  0.35084278  0.21427178  0.14606332     0.20900
H638        H  0.40981278  0.25595543  0.22043418     0.19300
H639        H  0.35270730  0.26084772  0.24498480     0.19200
H640        H  0.40703897  0.21029635  0.12129069     0.15100
C641        C  0.57740473  0.23579077  0.18058036     0.30500
C642        C  0.59053159  0.24687018  0.20351137    -0.35800
C643        C  0.62087635  0.24400736  0.20483286     0.16500
C644        C  0.63711036  0.23091321  0.18506496     0.22300
C645        C  0.62397273  0.21966936  0.16228057    -0.33900
C646        C  0.59371923  0.22277444  0.16086849     0.16400
O647        O  0.54951567  0.23711504  0.17467583    -0.25900
C648        C  0.54790995  0.22494500  0.15075377     0.06200
C649        C  0.57487073  0.21544976  0.14133800    -0.30800
O650        O  0.66516355  0.23095022  0.19012762    -0.22700
C651        C  0.66701866  0.24429192  0.21343124    -0.02700
C652        C  0.64013757  0.25289970  0.22356168    -0.17100
H653        H  0.57802628  0.25741642  0.21900314     0.20900
H654        H  0.63652189  0.20963802  0.14653437     0.19300
H655        H  0.58009173  0.20490291  0.12274959     0.19200
H656        H  0.63551771  0.26412926  0.24195905     0.15100
C657        C  0.51208152  0.21252037  0.02605947     0.30500
C658        C  0.53074411  0.21166833  0.00405217    -0.35800
C659        C  0.51727248  0.21143281  0.97908224     0.16500
C660        C  0.48755679  0.21198843  0.97597648     0.22300
C661        C  0.46890193  0.21273151  0.99797821    -0.33900
C662        C  0.48236864  0.21297455  0.02294446     0.16400
O663        O  0.51995572  0.21367558  0.05118813    -0.25900
C664        C  0.49497522  0.21488535  0.06450878     0.06200
C665        C  0.47082916  0.21441428  0.04777544    -0.30800
O666        O  0.47966197  0.21233620  0.95082904    -0.22700
C667        C  0.50462845  0.21197434  0.93748392    -0.02700
C668        C  0.52879592  0.21135086  0.95421200    -0.17100
H669        H  0.55410527  0.21156117  0.00623676     0.20900
H670        H  0.44554389  0.21342963  0.99577639     0.19300
H671        H  0.44803524  0.21548699  0.05279631     0.19200
H672        H  0.55158889  0.21128474  0.94914042     0.15100
C673        C  0.26236883  0.85952727  0.70062024     0.30500
C674        C  0.25719423  0.88945696  0.70234519    -0.35800
C675        C  0.26546227  0.90591238  0.68022947     0.16500
C676        C  0.27776712  0.89380800  0.65781423     0.22300
C677        C  0.28297345  0.86377805  0.65606008    -0.33900
C678        C  0.27487208  0.84728485  0.67831741     0.16400
O679        O  0.25632538  0.84020010  0.71906227    -0.25900
C680        C  0.26513101  0.81519532  0.70855551     0.06200
C681        C  0.27688589  0.81821894  0.68321189    -0.30800
O682        O  0.28364883  0.91340118  0.63947275    -0.22700
C683        C  0.27522839  0.93844765  0.65037633    -0.02700
C684        C  0.26363246  0.93495259  0.67574522    -0.17100
H685        H  0.24746719  0.89924793  0.71977437     0.20900
H686        H  0.29269785  0.85399198  0.63862700     0.19300
H687        H  0.28546750  0.80146266  0.67029538     0.19200
H688        H  0.25473284  0.95127166  0.68893036     0.15100
C689        C  0.23719531  0.63653150  0.81824463     0.30500
C690        C  0.23027898  0.62420523  0.84293265    -0.35800
C691        C  0.23274855  0.59393166  0.84455955     0.16500
C692        C  0.24130632  0.57698454  0.82337760     0.22300
C693        C  0.24832283  0.58929244  0.79872725    -0.33900
C694        C  0.24597305  0.61954965  0.79710957     0.16400
O695        O  0.23657696  0.66437483  0.81228816    -0.25900
C696        C  0.24520699  0.66519612  0.78706750     0.06200
C697        C  0.25134938  0.63796844  0.77657817    -0.30800
O698        O  0.24170267  0.54914389  0.82920783    -0.22700
C699        C  0.23335509  0.54806878  0.85452903    -0.02700
C700        C  0.22753225  0.57546684  0.86509324    -0.17100
H701        H  0.22346585  0.63728705  0.85967758     0.20900
H702        H  0.25511857  0.57619270  0.78198873     0.19300
H703        H  0.25880846  0.63259339  0.75677635     0.19200
H704        H  0.22006269  0.58121534  0.88477687     0.15100
C705        C  0.09077750  0.73446188  0.67408354     0.30500
C706        C  0.10424836  0.74390301  0.69739659    -0.35800
C707        C  0.13395387  0.73743511  0.69963440     0.16500
C708        C  0.14940482  0.72280373  0.68023828     0.22300
C709        C  0.13597289  0.71353940  0.65684152    -0.33900
C710        C  0.10625333  0.71998114  0.65463963     0.16400
O711        O  0.06304047  0.73749001  0.66816926    -0.25900
C712        C  0.06068172  0.72493885  0.64452079     0.06200
C713        C  0.08698885  0.71367883  0.63516045    -0.30800
O714        O  0.17700939  0.71920709  0.68644208    -0.22700
C715        C  0.17921463  0.73166592  0.71012791    -0.02700
C716        C  0.15312707  0.74335401  0.71932833    -0.17100
H717        H  0.09236328  0.75530114  0.71279005     0.20900
H718        H  0.14782163  0.70202145  0.64149590     0.19300
H719        H  0.09129317  0.70186493  0.61702044     0.19200
H720        H  0.14901715  0.75486559  0.73767773     0.15100
C721        C  0.86452198  0.72676571  0.68468374     0.30500
C722        C  0.87743972  0.71579561  0.66150974    -0.35800
C723        C  0.90727544  0.72039856  0.65877511     0.16500
C724        C  0.92342046  0.73453197  0.67765100     0.22300
C725        C  0.91052335  0.74540782  0.70094245    -0.33900
C726        C  0.88057172  0.74103138  0.70358315     0.16400
O727        O  0.83674910  0.72572940  0.69077312    -0.25900
C728        C  0.83486873  0.73952880  0.71387521     0.06200
C729        C  0.86148227  0.74949175  0.72287242    -0.30800
O730        O  0.95091286  0.73679481  0.67074439    -0.22700
C731        C  0.95240044  0.72414874  0.64700252    -0.02700
C732        C  0.92580486  0.71345305  0.63866536    -0.17100
H733        H  0.86498521  0.70486017  0.64644002     0.20900
H734        H  0.92287931  0.75685217  0.71575341     0.19300
H735        H  0.86597882  0.76159955  0.74074258     0.19200
H736        H  0.92072888  0.70213900  0.62050250     0.15100
C737        C  0.86359095  0.74552549  0.29672721     0.30500
C738        C  0.89347371  0.75066962  0.29544337    -0.35800
C739        C  0.90993569  0.74082443  0.31720266     0.16500
C740        C  0.89784137  0.72707052  0.33883473     0.22300
C741        C  0.86794122  0.72189194  0.34013157    -0.33900
C742        C  0.85147966  0.73158505  0.31828676     0.16400
O743        O  0.84417369  0.75291649  0.27858731    -0.25900
C744        C  0.81928149  0.74357067  0.28861732     0.06200
C745        C  0.82250003  0.73007853  0.31327313    -0.30800
O746        O  0.91727420  0.71997672  0.35705252    -0.22700
C747        C  0.94226419  0.72909230  0.34692410    -0.02700
C748        C  0.93890030  0.74230597  0.32210887    -0.17100
H749        H  0.90320963  0.76156617  0.27863970     0.20900
H750        H  0.85820645  0.71108099  0.35698281     0.19300
H751        H  0.80589858  0.72066648  0.32569153     0.19200
H752        H  0.95520112  0.75208145  0.30961728     0.15100
C753        C  0.01288870  0.71333389  0.47135701     0.30500
C754        C  0.03124484  0.71399510  0.49351114    -0.35800
C755        C  0.01753531  0.71318212  0.51832104     0.16500
C756        C  0.98785859  0.71174950  0.52122694     0.22300
C757        C  0.96947273  0.71084586  0.49900896    -0.33900
C758        C  0.98319708  0.71175327  0.47412347     0.16400
O759        O  0.02104471  0.71522397  0.44637139    -0.25900
C760        C  0.99631240  0.71488607  0.43270638     0.06200
C761        C  0.97198666  0.71259772  0.44908168    -0.30800
O762        O  0.97973430  0.71239218  0.54635363    -0.22700
C763        C  0.00455318  0.71422503  0.55980327    -0.02700
C764        C  0.02879120  0.71471001  0.54317275    -0.17100
H765        H  0.05454728  0.71566669  0.49153904     0.20900
H766        H  0.94611228  0.71012585  0.50098218     0.19300
H767        H  0.94929603  0.71231160  0.44365585     0.19200
H768        H  0.05147296  0.71664615  0.54821126     0.15100
C769        C  0.36110290  0.76281860  0.81345721     0.30500
C770        C  0.37408389  0.77385008  0.83638845    -0.35800
C771        C  0.40424660  0.77023464  0.83814239     0.16500
C772        C  0.42061073  0.75693793  0.81861121     0.22300
C773        C  0.40762766  0.74593034  0.79560281    -0.33900
C774        C  0.37737897  0.74934382  0.79392525     0.16400
O775        O  0.33318085  0.76358310  0.80790406    -0.25900
C776        C  0.33148851  0.75038901  0.78452815     0.06200
C777        C  0.35830019  0.74104249  0.77484080    -0.30800
O778        O  0.44850069  0.75597564  0.82445091    -0.22700
C779        C  0.45002533  0.76863487  0.84815391    -0.02700
C780        C  0.42304394  0.77799075  0.85755056    -0.17100
H781        H  0.36151475  0.78434910  0.85186671     0.20900
H782        H  0.42019228  0.73532497  0.78018344     0.19300
H783        H  0.36299148  0.72978269  0.75647351     0.19200
H784        H  0.41790384  0.78923426  0.87581568     0.15100
C785        C  0.63682401  0.76323620  0.79419068     0.30500
C786        C  0.60686278  0.75857125  0.79257679    -0.35800
C787        C  0.59051688  0.76651354  0.81499224     0.16500
C788        C  0.60272263  0.77821135  0.83745946     0.22300
C789        C  0.63265383  0.78314818  0.83898342    -0.33900
C790        C  0.64902371  0.77522464  0.81657042     0.16400
O791        O  0.65632460  0.75655575  0.77592217    -0.25900
C792        C  0.68133621  0.76449915  0.78669802     0.06200
C793        C  0.67809276  0.77632090  0.81193564    -0.30800
O794        O  0.58348096  0.78306314  0.85641462    -0.22700
C795        C  0.55847145  0.77447763  0.84598646    -0.02700
C796        C  0.56169822  0.76400190  0.82014232    -0.17100
H797        H  0.59704084  0.74900597  0.77522583     0.20900
H798        H  0.64255219  0.79211736  0.85656822     0.19300
H799        H  0.69480351  0.78405256  0.82512674     0.19200
H800        H  0.54551130  0.75504033  0.80711405     0.15100
C801        C  0.57908405  0.76860517  0.17585582     0.30500
C802        C  0.59211228  0.75952720  0.19975237    -0.35800
C803        C  0.62224083  0.76297524  0.20142627     0.16500
C804        C  0.63846202  0.77458317  0.18102698     0.22300
C805        C  0.62544530  0.78352125  0.15709021    -0.33900
C806        C  0.59532539  0.78003345  0.15542596     0.16400
O807        O  0.55122610  0.76749240  0.17001942    -0.25900
C808        C  0.54951028  0.77822412  0.14542079     0.06200
C809        C  0.57642218  0.78644899  0.13543241    -0.30800
O810        O  0.66629225  0.77591954  0.18693380    -0.22700
C811        C  0.66790586  0.76497896  0.21142763    -0.02700
C812        C  0.64118191  0.75652208  0.22142062    -0.17100
H813        H  0.57963411  0.75045369  0.21591771     0.20900
H814        H  0.63791346  0.79258189  0.14091018     0.19300
H815        H  0.58153083  0.79604574  0.11637516     0.19200
H816        H  0.63644995  0.74698184  0.24060598     0.15100
C817        C  0.48746313  0.79067454  0.97097074     0.30500
C818        C  0.46893969  0.79227474  0.99309395    -0.35800
C819        C  0.48253420  0.79209585  0.01804148     0.16500
C820        C  0.51225357  0.79069619  0.02097548     0.22300
C821        C  0.53076797  0.78951822  0.99885703    -0.33900
C822        C  0.51718628  0.78945558  0.97392394     0.16400
O823        O  0.47939487  0.78860531  0.94593952    -0.25900
C824        C  0.50423997  0.78603788  0.93250230     0.06200
C825        C  0.52851590  0.78657674  0.94905043    -0.30800
O826        O  0.52028272  0.78916930  0.04606696    -0.22700
C827        C  0.49543049  0.78955245  0.05959908    -0.02700
C828        C  0.47116230  0.79152319  0.04302429    -0.17100
H829        H  0.44556346  0.79267295  0.99101971     0.20900
H830        H  0.55410043  0.78783058  0.00097142     0.19300
H831        H  0.55118550  0.78410488  0.94387096     0.19200
H832        H  0.44841013  0.79170559  0.04826831     0.15100
C833        C  0.25265348  0.87251960  0.29949338     0.30500
C834        C  0.24551904  0.90217369  0.29976974    -0.35800
C835        C  0.25547580  0.91776503  0.32172115     0.16500
C836        C  0.27118217  0.90509478  0.34214390     0.22300
C837        C  0.27831572  0.87538825  0.34189071    -0.33900
C838        C  0.26847623  0.85979058  0.31984265     0.16400
O839        O  0.24561723  0.85390431  0.28084705    -0.25900
C840        C  0.25706064  0.82888290  0.28933542     0.06200
C841        C  0.27155164  0.83123213  0.31349658    -0.30800
O842        O  0.27826797  0.92386405  0.36068315    -0.22700
C843        C  0.26716167  0.94898451  0.35192214    -0.02700
C844        C  0.25264718  0.94635758  0.32776311    -0.17100
H845        H  0.23316029  0.91240465  0.28391716     0.20900
H846        H  0.29072388  0.86517673  0.35772051     0.19300
H847        H  0.28262979  0.81433935  0.32474446     0.19200
H848        H  0.24140127  0.96298133  0.31633610     0.15100
C849        C  0.21944674  0.60233409  0.15971577     0.30500
C850        C  0.21437127  0.63241100  0.15872810    -0.35800
C851        C  0.22459602  0.64826493  0.18045676     0.16500
C852        C  0.23886854  0.63542881  0.20168033     0.22300
C853        C  0.24388865  0.60537312  0.20268543    -0.33900
C854        C  0.23356280  0.58953794  0.18101525     0.16400
O855        O  0.21203802  0.58337650  0.14145516    -0.25900
C856        C  0.22132156  0.55799405  0.15124710     0.06200
C857        C  0.23493273  0.56064165  0.17586244    -0.30800
O858        O  0.24656052  0.65435298  0.21983717    -0.22700
C859        C  0.23709536  0.67966846  0.21013564    -0.02700
C860        C  0.22325815  0.67720427  0.18568086    -0.17100
H861        H  0.20327267  0.64273127  0.14216689     0.20900
H862        H  0.25505216  0.59505217  0.21921298     0.19300
H863        H  0.24496281  0.54389104  0.18803809     0.19200
H864        H  0.21357369  0.69424339  0.17359183     0.15100
C865        C  0.41213556  0.76722397  0.17629933     0.30500
C866        C  0.39948803  0.75736626  0.20000445    -0.35800
C867        C  0.36944564  0.76201169  0.20237501     0.16500
C868        C  0.35306993  0.77549914  0.18279854     0.22300
C869        C  0.36568639  0.78526794  0.15913435    -0.33900
C870        C  0.39563686  0.78049685  0.15673153     0.16400
O871        O  0.43983471  0.76530837  0.16987426    -0.25900
C872        C  0.44109747  0.77735091  0.14577650     0.06200
C873        C  0.41412026  0.78719122  0.13667223    -0.30800
O874        O  0.32535447  0.77731436  0.18894243    -0.22700
C875        C  0.32387062  0.76478165  0.21273643    -0.02700
C876        C  0.35063225  0.75485501  0.22215690    -0.17100
H877        H  0.41215025  0.74675936  0.21545218     0.20900
H878        H  0.35300008  0.79572810  0.14361850     0.19300
H879        H  0.40879907  0.79816279  0.11821200     0.19200
H880        H  0.35541168  0.74370169  0.24066165     0.15100
C881        C  0.08095754  0.73663985  0.31758047     0.30500
C882        C  0.09412187  0.74475222  0.29354847    -0.35800
C883        C  0.12456061  0.74319080  0.29307982     0.16500
C884        C  0.14082626  0.73404690  0.31468176     0.22300
C885        C  0.12768004  0.72599344  0.33862200    -0.33900
C886        C  0.09734842  0.72774112  0.33912307     0.16400
O887        O  0.05287989  0.73674142  0.32268564    -0.25900
C888        C  0.05123454  0.72787874  0.34790172     0.06200
C889        C  0.07842099  0.72191338  0.35901394    -0.30800
O890        O  0.16891311  0.73424715  0.30998902    -0.22700
C891        C  0.17075320  0.74380359  0.28510736    -0.02700
C892        C  0.14386627  0.74977033  0.27354010    -0.17100
H893        H  0.08155468  0.75194591  0.27651347     0.20900
H894        H  0.14024619  0.71901753  0.35573186     0.19300
H895        H  0.08384269  0.71429775  0.37878028     0.19200
H896        H  0.13927945  0.75774773  0.25368583     0.15100
loop_ 
_geom_bond_atom_site_label_1 
_geom_bond_atom_site_label_2 
_geom_bond_distance 
_geom_bond_site_symmetry_2 
_ccdc_geom_bond_type 
O1           Ni9   1.917       .  S
O1           C11   1.281       .  A
O2           Ni9   1.918       .  S
O2           C12   1.281       .  A
O3           Ni9   1.916       .  S
O3           C13   1.281       .  A
O4           Ni9   1.919       .  S
O4           C14   1.281       .  A
O5          Ni10   1.920       .  S
O5           C14   1.282       .  A
O6          Ni10   1.922       .  S
O6           C13   1.282       .  A
O7          Ni10   1.912       .  S
O7           C12   1.280       .  A
O8          Ni10   1.913       .  S
O8           C11   1.280       .  A
Ni9         Ni10   2.391       .  S
C11         C891   1.465       .  S
C12         C875   1.465       .  S
C13         C840   1.471       .  S
C14         C859   1.471       .  S
C15         C872   1.482       .  S
C15          C16   1.406       .  A
C15          C20   1.404       .  A
C16          C17   1.405       .  A
C16          H21   1.079       .  S
C17         C827   1.487       .  S
C17          C18   1.404       .  A
C18          C19   1.406       .  A
C18          H22   1.081       .  S
C19         C808   1.484       .  S
C19          C20   1.404       .  A
C20          H23   1.084       .  S
C24         C795   1.487       .  S
C24          C25   1.408       .  A
C24          C29   1.407       .  A
C25          C26   1.410       .  A
C25          H30   1.081       .  S
C26         C824   1.487       .  S
C26          C27   1.404       .  A
C27          C28   1.403       .  A
C27          H31   1.082       .  S
C28         C779   1.481       .  S
C28          C29   1.401       .  A
C29          H32   1.081       .  S
C33         C747   1.482       .  S
C33          C34   1.405       .  A
C33          C38   1.407       .  A
C34          C35   1.405       .  A
C34          H39   1.081       .  S
C35         C760   1.484       .  S
C35          C36   1.403   1_655  A
C36          C37   1.405       .  A
C36          H40   1.080       .  S
C37         C888   1.485       .  S
C37          C38   1.404   1_455  A
C38          H41   1.082       .  S
C42         C712   1.479       .  S
C42          C43   1.403       .  A
C42          C47   1.402       .  A
C43          C44   1.404   1_455  A
C43          H48   1.084       .  S
C44         C731   1.483       .  S
C44          C45   1.408       .  A
C45          C46   1.405   1_655  A
C45          H49   1.082       .  S
C46         C763   1.485       .  S
C46          C47   1.404       .  A
C47          H50   1.078       .  S
O51         Ni59   1.916       .  S
O51          C61   1.281       .  A
O52         Ni59   1.918       .  S
O52          C62   1.281       .  A
O53         Ni59   1.920       .  S
O53          C63   1.282       .  A
O54         Ni59   1.916       .  S
O54          C64   1.280       .  A
O55         Ni60   1.914       .  S
O55          C64   1.281       .  A
O56         Ni60   1.913       .  S
O56          C63   1.280       .  A
O57         Ni60   1.915       .  S
O57          C62   1.280       .  A
O58         Ni60   1.914       .  S
O58          C61   1.280       .  A
Ni59        Ni60   2.392       .  S
C61         C696   1.465       .  S
C62         C680   1.467       .  S
C63         C776   1.467       .  S
C64         C715   1.466       .  S
C65         C648   1.484       .  S
C65          C66   1.406       .  A
C65          C70   1.405       .  A
C66          C67   1.403       .  A
C66          H71   1.081       .  S
C67         C664   1.485       .  S
C67          C68   1.406       .  A
C68          C69   1.406       .  A
C68          H72   1.078       .  S
C69         C635   1.485       .  S
C69          C70   1.405       .  A
C70          H73   1.084       .  S
C74         C603   1.476       .  S
C74          C75   1.404       .  A
C74          C79   1.402       .  A
C75          C76   1.403       .  A
C75          H80   1.082       .  S
C76         C667   1.484       .  S
C76          C77   1.405       .  A
C77          C78   1.405       .  A
C77          H81   1.079       .  S
C78         C619   1.480       .  S
C78          C79   1.402       .  A
C79          H82   1.084       .  S
C83         C856   1.484       .  S
C83          C84   1.407       .  A
C83          C88   1.406       .  A
C84          C85   1.409       .  A
C84          H89   1.081       .  S
C85         C584   1.486       .  S
C85          C86   1.402       .  A
C86          C87   1.403       .  A
C86          H90   1.081       .  S
C87         C571   1.482       .  S
C87          C88   1.402       .  A
C88          H91   1.082       .  S
C92         C552   1.487       .  S
C92          C93   1.406       .  A
C92          C97   1.408       .  A
C93          C94   1.402       .  A
C93          H98   1.080       .  S
C94         C699   1.483       .  S
C94          C95   1.402       .  A
C95          C96   1.404       .  A
C95          H99   1.081       .  S
C96         C587   1.485       .  S
C96          C97   1.409       .  A
C97         H100   1.081       .  S
C101        C504   1.486       .  S
C101        C102   1.406   1_455  A
C101        C106   1.406       .  A
C102        C103   1.408       .  A
C102        H107   1.083       .  S
C103        C523   1.487       .  S
C103        C104   1.408       .  A
C104        C105   1.405       .  A
C104        H108   1.078       .  S
C105        C536   1.487       .  S
C105        C106   1.402   1_655  A
C106        H109   1.081       .  S
C110        C488   1.481       .  S
C110        C111   1.402   1_655  A
C110        C115   1.405       .  A
C111        C112   1.404       .  A
C111        H116   1.084       .  S
C112        C472   1.481       .  S
C112        C113   1.407       .  A
C113        C114   1.406       .  A
C113        H117   1.079       .  S
C114        C539   1.486       .  S
C114        C115   1.404   1_455  A
C115        H118   1.082       .  S
C119        C443   1.480       .  S
C119        C120   1.402       .  A
C119        C124   1.403       .  A
C120        C121   1.405   1_545  A
C120        H125   1.083       .  S
C121        C843   1.483       .  S
C121        C122   1.406       .  A
C122        C123   1.408   1_565  A
C122        H126   1.083       .  S
C123        C456   1.486       .  S
C123        C124   1.404       .  A
C124        H127   1.078       .  S
C128        C683   1.484       .  S
C128        C129   1.401       .  A
C128        C133   1.405       .  A
C129        C130   1.408       .  A
C129        H134   1.080       .  S
C130        C459   1.487       .  S
C130        C131   1.407   1_565  A
C131        C132   1.407       .  A
C131        H135   1.083       .  S
C132        C424   1.489       .  S
C132        C133   1.408   1_545  A
C133        H136   1.079       .  S
O137       Ni145   1.917       .  S
O137        C147   1.281       .  A
O138       Ni145   1.917       .  S
O138        C148   1.281       .  A
O139       Ni145   1.916       .  S
O139        C149   1.281       .  A
O140       Ni145   1.910       .  S
O140        C150   1.279       .  A
O141       Ni146   1.916       .  S
O141        C150   1.281       .  A
O142       Ni146   1.910       .  S
O142        C149   1.279       .  A
O143       Ni146   1.920       .  S
O143        C148   1.281       .  A
O144       Ni146   1.922       .  S
O144        C147   1.282       .  A
Ni145      Ni146   2.392       .  S
C147        C427   1.470       .  S
C148        C555   1.469       .  S
C149        C475   1.463       .  S
C150        C600   1.463       .  S
O151       Ni159   1.916       .  S
O151        C161   1.280       .  A
O152       Ni159   1.918       .  S
O152        C162   1.281       .  A
O153       Ni159   1.912       .  S
O153        C163   1.280       .  A
O154       Ni159   1.912       .  S
O154        C164   1.280       .  A
O155       Ni160   1.913       .  S
O155        C164   1.280       .  A
O156       Ni160   1.916       .  S
O156        C163   1.281       .  A
O157       Ni160   1.922       .  S
O157        C162   1.282       .  A
O158       Ni160   1.924       .  S
O158        C161   1.282       .  A
Ni159      Ni160   2.391       .  S
C161        C632   1.471       .  S
C162        C507   1.472       .  S
C163        C568   1.464       .  S
C164        C440   1.463       .  S
O165       Ni173   1.913       .  S
O165        C175   1.280       .  A
O166       Ni173   1.913       .  S
O166        C176   1.280       .  A
O167       Ni173   1.921       .  S
O167        C177   1.282       .  A
O168       Ni173   1.918       .  S
O168        C178   1.281       .  A
O169       Ni174   1.922       .  S
O169        C178   1.282       .  A
O170       Ni174   1.916       .  S
O170        C177   1.280       .  A
O171       Ni174   1.921       .  S
O171        C176   1.281       .  A
O172       Ni174   1.919       .  S
O172        C175   1.281       .  A
Ni173      Ni174   2.391       .  S
C175        C408   1.467       .  S
C176        C395   1.468       .  S
C177        C520   1.469       .  S
C178        C651   1.471       .  S
C179        C392   1.484       .  S
C179        C180   1.406       .  A
C179        C184   1.405       .  A
C180        C181   1.405       .  A
C180        H185   1.084       .  S
C181        C379   1.484       .  S
C181        C182   1.406       .  A
C182        C183   1.405       .  A
C182        H186   1.078       .  S
C183        C363   1.484       .  S
C183        C184   1.403       .  A
C184        H187   1.081       .  S
C188        C344   1.484       .  S
C188        C189   1.406       .  A
C188        C193   1.406       .  A
C189        C190   1.403       .  A
C189        H194   1.079       .  S
C190        C328   1.480       .  S
C190        C191   1.401       .  A
C191        C192   1.404       .  A
C191        H195   1.082       .  S
C192        C376   1.483       .  S
C192        C193   1.407       .  A
C193        H196   1.084       .  S
C197        C296   1.484       .  S
C197        C198   1.405   1_565  A
C197        C202   1.404       .  A
C198        C199   1.405       .  A
C198        H203   1.082       .  S
C199        C411   1.485       .  S
C199        C200   1.407       .  A
C200        C201   1.405       .  A
C200        H204   1.081       .  S
C201        C312   1.487       .  S
C201        C202   1.406   1_545  A
C202        H205   1.081       .  S
C206        C267   1.481       .  S
C206        C207   1.399       .  A
C206        C211   1.403       .  A
C207        C208   1.405   1_545  A
C207        H212   1.082       .  S
C208        C283   1.483       .  S
C208        C209   1.407       .  A
C209        C210   1.409   1_565  A
C209        H213   1.083       .  S
C210        C315   1.489       .  S
C210        C211   1.408       .  A
C211        H214   1.079       .  S
O215       Ni223   1.913       .  S
O215        C225   1.280       .  A
O216       Ni223   1.912       .  S
O216        C226   1.280       .  A
O217       Ni223   1.917       .  S
O217        C227   1.281       .  A
O218       Ni223   1.916       .  S
O218        C228   1.280       .  A
O219       Ni224   1.919       .  S
O219        C228   1.281       .  A
O220       Ni224   1.919       .  S
O220        C227   1.281       .  A
O221       Ni224   1.920       .  S
O221        C226   1.282       .  A
O222       Ni224   1.920       .  S
O222        C225   1.282       .  A
Ni223      Ni224   2.391       .  S
C225        C331   1.467       .  S
C226        C264   1.467       .  S
C227        C616   1.469       .  S
C228        C491   1.468       .  S
O229       Ni237   1.916       .  S
O229        C239   1.281       .  A
O230       Ni237   1.916       .  S
O230        C240   1.281       .  A
O231       Ni237   1.919       .  S
O231        C241   1.282       .  A
O232       Ni237   1.917       .  S
O232        C242   1.281       .  A
O233       Ni238   1.920       .  S
O233        C242   1.281       .  A
O234       Ni238   1.918       .  S
O234        C241   1.280       .  A
O235       Ni238   1.920       .  S
O235        C240   1.281       .  A
O236       Ni238   1.917       .  S
O236        C239   1.280       .  A
Ni237      Ni238   2.391       .  S
C239        C360   1.466       .  S
C240        C299   1.470       .  S
C241        C811   1.469       .  S
C242        C744   1.470       .  S
O243       Ni251   1.921       .  S
O243        C253   1.282       .  A
O244       Ni251   1.921       .  S
O244        C254   1.281       .  A
O245       Ni251   1.921       .  S
O245        C255   1.282       .  A
O246       Ni251   1.919       .  S
O246        C256   1.282       .  A
O247       Ni252   1.920       .  S
O247        C256   1.281       .  A
O248       Ni252   1.919       .  S
O248        C255   1.281       .  A
O249       Ni252   1.912       .  S
O249        C254   1.280       .  A
O250       Ni252   1.913       .  S
O250        C253   1.280       .  A
Ni251      Ni252   2.391       .  S
C253        C280   1.468       .  S
C254        C347   1.466       .  S
C255        C728   1.471       .  S
C256        C792   1.471       .  S
C257        C262   1.381       .  A
C257        C258   1.401       .  A
C257        O263   1.316       .  A
C258        C259   1.400       .  A
C258        H269   1.082       .  S
C259        C268   1.359       .  A
C259        C260   1.379       .  A
C260        C261   1.405       .  A
C260        O266   1.318       .  A
C261        C262   1.403       .  A
C261        H270   1.082       .  S
C262        C265   1.363       .  A
O263        C264   1.329       .  A
C264        C265   1.392       .  A
C265        H271   1.082       .  S
O266        C267   1.333       .  A
C267        C268   1.393       .  A
C268        H272   1.082       .  S
C273        C278   1.381       .  A
C273        C274   1.400       .  A
C273        O279   1.318       .  A
C274        C275   1.400       .  A
C274        H285   1.082       .  S
C275        C284   1.356       .  A
C275        C276   1.379       .  A
C276        C277   1.405       .  A
C276        O282   1.322       .  A
C277        C278   1.405       .  A
C277        H286   1.082       .  S
C278        C281   1.362       .  A
O279        C280   1.329       .  A
C280        C281   1.393       .  A
C281        H287   1.082       .  S
O282        C283   1.333       .  A
C283        C284   1.393       .  A
C284        H288   1.082       .  S
C289        C294   1.379       .  A
C289        C290   1.403       .  A
C289        O295   1.318       .  A
C290        C291   1.402       .  A
C290        H301   1.082       .  S
C291        C300   1.360       .  A
C291        C292   1.380       .  A
C292        C293   1.404       .  A
C292        O298   1.319       .  A
C293        C294   1.403       .  A
C293        H302   1.082       .  S
C294        C297   1.361       .  A
O295        C296   1.332       .  A
C296        C297   1.396       .  A
C297        H303   1.082       .  S
O298        C299   1.331       .  A
C299        C300   1.391       .  A
C300        H304   1.082       .  S
C305        C310   1.379   1_545  A
C305        C306   1.403       .  A
C305        O311   1.318       .  A
C306        C307   1.403       .  A
C306        H317   1.082       .  S
C307        C316   1.359       .  A
C307        C308   1.378   1_545  A
C308        C309   1.404       .  A
C308        O314   1.320       .  A
C309        C310   1.404       .  A
C309        H318   1.082       .  S
C310        C313   1.361       .  A
O311        C312   1.333       .  A
C312        C313   1.396   1_545  A
C313        H319   1.081       .  S
O314        C315   1.333   1_565  A
C315        C316   1.397       .  A
C316        H320   1.081       .  S
C321        C326   1.379       .  A
C321        C322   1.402       .  A
C321        O327   1.316       .  A
C322        C323   1.401       .  A
C322        H333   1.082       .  S
C323        C332   1.362       .  A
C323        C324   1.381       .  A
C324        C325   1.402       .  A
C324        O330   1.317       .  A
C325        C326   1.401       .  A
C325        H334   1.082       .  S
C326        C329   1.360       .  A
O327        C328   1.331       .  A
C328        C329   1.394       .  A
C329        H335   1.082       .  S
O330        C331   1.330       .  A
C331        C332   1.391       .  A
C332        H336   1.082       .  S
C337        C342   1.379       .  A
C337        C338   1.406       .  A
C337        O343   1.321       .  A
C338        C339   1.405       .  A
C338        H349   1.082       .  S
C339        C348   1.364       .  A
C339        C340   1.381       .  A
C340        C341   1.399       .  A
C340        O346   1.315       .  A
C341        C342   1.399       .  A
C341        H350   1.083       .  S
C342        C345   1.356       .  A
O343        C344   1.334       .  A
C344        C345   1.394       .  A
C345        H351   1.082       .  S
O346        C347   1.329       .  A
C347        C348   1.393       .  A
C348        H352   1.082       .  S
C353        C358   1.381       .  A
C353        C354   1.402       .  A
C353        O359   1.318       .  A
C354        C355   1.401       .  A
C354        H365   1.082       .  S
C355        C364   1.360       .  A
C355        C356   1.378       .  A
C356        C357   1.402       .  A
C356        O362   1.317       .  A
C357        C358   1.401       .  A
C357        H366   1.082       .  S
C358        C361   1.361       .  A
O359        C360   1.330       .  A
C360        C361   1.391       .  A
C361        H367   1.082       .  S
O362        C363   1.332       .  A
C363        C364   1.396       .  A
C364        H368   1.081       .  S
C369        C374   1.379       .  A
C369        C370   1.402       .  A
C369        O375   1.319       .  A
C370        C371   1.402   1_556  A
C370        H381   1.082       .  S
C371        C380   1.358       .  A
C371        C372   1.379       .  A
C372        C373   1.403       .  A
C372        O378   1.319       .  A
C373        C374   1.403   1_554  A
C373        H382   1.082       .  S
C374        C377   1.359       .  A
O375        C376   1.331       .  A
C376        C377   1.396       .  A
C377        H383   1.082       .  S
O378        C379   1.333       .  A
C379        C380   1.395       .  A
C380        H384   1.082       .  S
C385        C390   1.379       .  A
C385        C386   1.402       .  A
C385        O391   1.318       .  A
C386        C387   1.402       .  A
C386        H397   1.082       .  S
C387        C396   1.360       .  A
C387        C388   1.381       .  A
C388        C389   1.402       .  A
C388        O394   1.319       .  A
C389        C390   1.402       .  A
C389        H398   1.082       .  S
C390        C393   1.359       .  A
O391        C392   1.332       .  A
C392        C393   1.396       .  A
C393        H399   1.081       .  S
O394        C395   1.330       .  A
C395        C396   1.391       .  A
C396        H400   1.083       .  S
C401        C406   1.381       .  A
C401        C402   1.403       .  A
C401        O407   1.319       .  A
C402        C403   1.403       .  A
C402        H413   1.082       .  S
C403        C412   1.361       .  A
C403        C404   1.379       .  A
C404        C405   1.402       .  A
C404        O410   1.317       .  A
C405        C406   1.401       .  A
C405        H414   1.082       .  S
C406        C409   1.359       .  A
O407        C408   1.331       .  A
C408        C409   1.390       .  A
C409        H415   1.083       .  S
O410        C411   1.332       .  A
C411        C412   1.396       .  A
C412        H416   1.081       .  S
C417        C422   1.378       .  A
C417        C418   1.406       .  A
C417        O423   1.320       .  A
C418        C419   1.405       .  A
C418        H429   1.082       .  S
C419        C428   1.365       .  A
C419        C420   1.380       .  A
C420        C421   1.401       .  A
C420        O426   1.317       .  A
C421        C422   1.400       .  A
C421        H430   1.082       .  S
C422        C425   1.358       .  A
O423        C424   1.334       .  A
C424        C425   1.396       .  A
C425        H431   1.081       .  S
O426        C427   1.329       .  A
C427        C428   1.393       .  A
C428        H432   1.082       .  S
C433        C438   1.381       .  A
C433        C434   1.400       .  A
C433        O439   1.316       .  A
C434        C435   1.400       .  A
C434        H445   1.083       .  S
C435        C444   1.356       .  A
C435        C436   1.379       .  A
C436        C437   1.402       .  A
C436        O442   1.318       .  A
C437        C438   1.402       .  A
C437        H446   1.082       .  S
C438        C441   1.360       .  A
O439        C440   1.329       .  A
C440        C441   1.390       .  A
C441        H447   1.083       .  S
O442        C443   1.332       .  A
C443        C444   1.394       .  A
C444        H448   1.082       .  S
C449        C454   1.379   1_565  A
C449        C450   1.400       .  A
C449        O455   1.318       .  A
C450        C451   1.401       .  A
C450        H461   1.082       .  S
C451        C460   1.357       .  A
C451        C452   1.378   1_565  A
C452        C453   1.404       .  A
C452        O458   1.320       .  A
C453        C454   1.405       .  A
C453        H462   1.082       .  S
C454        C457   1.360       .  A
O455        C456   1.331   1_565  A
C456        C457   1.399       .  A
C457        H463   1.081       .  S
O458        C459   1.334   1_545  A
C459        C460   1.395       .  A
C460        H464   1.081       .  S
C465        C470   1.379       .  A
C465        C466   1.404       .  A
C465        O471   1.318       .  A
C466        C467   1.402       .  A
C466        H477   1.082       .  S
C467        C476   1.362       .  A
C467        C468   1.381       .  A
C468        C469   1.400       .  A
C468        O474   1.315       .  A
C469        C470   1.399       .  A
C469        H478   1.082       .  S
C470        C473   1.358       .  A
O471        C472   1.333       .  A
C472        C473   1.394       .  A
C473        H479   1.082       .  S
O474        C475   1.328       .  A
C475        C476   1.391       .  A
C476        H480   1.082       .  S
C481        C486   1.379       .  A
C481        C482   1.404       .  A
C481        O487   1.319       .  A
C482        C483   1.404       .  A
C482        H493   1.082       .  S
C483        C492   1.363       .  A
C483        C484   1.381       .  A
C484        C485   1.401       .  A
C484        O490   1.317       .  A
C485        C486   1.400       .  A
C485        H494   1.082       .  S
C486        C489   1.358       .  A
O487        C488   1.333       .  A
C488        C489   1.393       .  A
C489        H495   1.082       .  S
O490        C491   1.330       .  A
C491        C492   1.392       .  A
C492        H496   1.082       .  S
C497        C502   1.379       .  A
C497        C498   1.405       .  A
C497        O503   1.321       .  A
C498        C499   1.405       .  A
C498        H509   1.082       .  S
C499        C508   1.363       .  A
C499        C500   1.381       .  A
C500        C501   1.402       .  A
C500        O506   1.319       .  A
C501        C502   1.402       .  A
C501        H510   1.082       .  S
C502        C505   1.358       .  A
O503        C504   1.334       .  A
C504        C505   1.395       .  A
C505        H511   1.082       .  S
O506        C507   1.330       .  A
C507        C508   1.393       .  A
C508        H512   1.082       .  S
C513        C518   1.380       .  A
C513        C514   1.402       .  A
C513        O519   1.318       .  A
C514        C515   1.402       .  A
C514        H525   1.082       .  S
C515        C524   1.359       .  A
C515        C516   1.379       .  A
C516        C517   1.405       .  A
C516        O522   1.320       .  A
C517        C518   1.404       .  A
C517        H526   1.082       .  S
C518        C521   1.363       .  A
O519        C520   1.330       .  A
C520        C521   1.392       .  A
C521        H527   1.082       .  S
O522        C523   1.333       .  A
C523        C524   1.396       .  A
C524        H528   1.081       .  S
C529        C534   1.378   1_455  A
C529        C530   1.404       .  A
C529        O535   1.317       .  A
C530        C531   1.403       .  A
C530        H541   1.082       .  S
C531        C540   1.362       .  A
C531        C532   1.378   1_455  A
C532        C533   1.402       .  A
C532        O538   1.316       .  A
C533        C534   1.401       .  A
C533        H542   1.082       .  S
C534        C537   1.360       .  A
O535        C536   1.333   1_455  A
C536        C537   1.396       .  A
C537        H543   1.081       .  S
O538        C539   1.332   1_655  A
C539        C540   1.397       .  A
C540        H544   1.081       .  S
C545        C550   1.378       .  A
C545        C546   1.405       .  A
C545        O551   1.320       .  A
C546        C547   1.404       .  A
C546        H557   1.082       .  S
C547        C556   1.363       .  A
C547        C548   1.381       .  A
C548        C549   1.401       .  A
C548        O554   1.318       .  A
C549        C550   1.401       .  A
C549        H558   1.082       .  S
C550        C553   1.358       .  A
O551        C552   1.333       .  A
C552        C553   1.396       .  A
C553        H559   1.081       .  S
O554        C555   1.330       .  A
C555        C556   1.393       .  A
C556        H560   1.082       .  S
C561        C566   1.381       .  A
C561        C562   1.400       .  A
C561        O567   1.316       .  A
C562        C563   1.399       .  A
C562        H573   1.082       .  S
C563        C572   1.357       .  A
C563        C564   1.379       .  A
C564        C565   1.403       .  A
C564        O570   1.318       .  A
C565        C566   1.402       .  A
C565        H574   1.082       .  S
C566        C569   1.362       .  A
O567        C568   1.329       .  A
C568        C569   1.391       .  A
C569        H575   1.082       .  S
O570        C571   1.332       .  A
C571        C572   1.395       .  A
C572        H576   1.081       .  S
C577        C582   1.378       .  A
C577        C578   1.404       .  A
C577        O583   1.316       .  A
C578        C579   1.402   1_554  A
C578        H589   1.082       .  S
C579        C588   1.363       .  A
C579        C580   1.378       .  A
C580        C581   1.403       .  A
C580        O586   1.315       .  A
C581        C582   1.401   1_556  A
C581        H590   1.082       .  S
C582        C585   1.363       .  A
O583        C584   1.333       .  A
C584        C585   1.395       .  A
C585        H591   1.081       .  S
O586        C587   1.332       .  A
C587        C588   1.396       .  A
C588        H592   1.081       .  S
C593        C598   1.381       .  A
C593        C594   1.400       .  A
C593        O599   1.315       .  A
C594        C595   1.399       .  A
C594        H605   1.082       .  S
C595        C604   1.357       .  A
C595        C596   1.380       .  A
C596        C597   1.403       .  A
C596        O602   1.318       .  A
C597        C598   1.402       .  A
C597        H606   1.082       .  S
C598        C601   1.362       .  A
O599        C600   1.328       .  A
C600        C601   1.391       .  A
C601        H607   1.082       .  S
O602        C603   1.332       .  A
C603        C604   1.392       .  A
C604        H608   1.082       .  S
C609        C614   1.381       .  A
C609        C610   1.401       .  A
C609        O615   1.318       .  A
C610        C611   1.401       .  A
C610        H621   1.082       .  S
C611        C620   1.358       .  A
C611        C612   1.379       .  A
C612        C613   1.403       .  A
C612        O618   1.319       .  A
C613        C614   1.403       .  A
C613        H622   1.082       .  S
C614        C617   1.361       .  A
O615        C616   1.330       .  A
C616        C617   1.392       .  A
C617        H623   1.082       .  S
O618        C619   1.332       .  A
C619        C620   1.394       .  A
C620        H624   1.082       .  S
C625        C630   1.380       .  A
C625        C626   1.402       .  A
C625        O631   1.318       .  A
C626        C627   1.401       .  A
C626        H637   1.083       .  S
C627        C636   1.360       .  A
C627        C628   1.379       .  A
C628        C629   1.405       .  A
C628        O634   1.319       .  A
C629        C630   1.404       .  A
C629        H638   1.082       .  S
C630        C633   1.364       .  A
O631        C632   1.330       .  A
C632        C633   1.392       .  A
C633        H639   1.082       .  S
O634        C635   1.333       .  A
C635        C636   1.395       .  A
C636        H640   1.082       .  S
C641        C646   1.379       .  A
C641        C642   1.405       .  A
C641        O647   1.320       .  A
C642        C643   1.404       .  A
C642        H653   1.082       .  S
C643        C652   1.364       .  A
C643        C644   1.380       .  A
C644        C645   1.402       .  A
C644        O650   1.318       .  A
C645        C646   1.401       .  A
C645        H654   1.082       .  S
C646        C649   1.359       .  A
O647        C648   1.333       .  A
C648        C649   1.395       .  A
C649        H655   1.082       .  S
O650        C651   1.330       .  A
C651        C652   1.393       .  A
C652        H656   1.082       .  S
C657        C662   1.378       .  A
C657        C658   1.402       .  A
C657        O663   1.317       .  A
C658        C659   1.401   1_554  A
C658        H669   1.082       .  S
C659        C668   1.359       .  A
C659        C660   1.378       .  A
C660        C661   1.402       .  A
C660        O666   1.316       .  A
C661        C662   1.401   1_556  A
C661        H670   1.082       .  S
C662        C665   1.359       .  A
O663        C664   1.333       .  A
C664        C665   1.396       .  A
C665        H671   1.081       .  S
O666        C667   1.332       .  A
C667        C668   1.396       .  A
C668        H672   1.081       .  S
C673        C678   1.381       .  A
C673        C674   1.401       .  A
C673        O679   1.316       .  A
C674        C675   1.400       .  A
C674        H685   1.082       .  S
C675        C684   1.359       .  A
C675        C676   1.379       .  A
C676        C677   1.406       .  A
C676        O682   1.320       .  A
C677        C678   1.404       .  A
C677        H686   1.082       .  S
C678        C681   1.364       .  A
O679        C680   1.329       .  A
C680        C681   1.392       .  A
C681        H687   1.082       .  S
O682        C683   1.334       .  A
C683        C684   1.393       .  A
C684        H688   1.082       .  S
C689        C694   1.381       .  A
C689        C690   1.402       .  A
C689        O695   1.317       .  A
C690        C691   1.401       .  A
C690        H701   1.082       .  S
C691        C700   1.359       .  A
C691        C692   1.379       .  A
C692        C693   1.401       .  A
C692        O698   1.316       .  A
C693        C694   1.400       .  A
C693        H702   1.082       .  S
C694        C697   1.359       .  A
O695        C696   1.330       .  A
C696        C697   1.390       .  A
C697        H703   1.083       .  S
O698        C699   1.332       .  A
C699        C700   1.396       .  A
C700        H704   1.081       .  S
C705        C710   1.380       .  A
C705        C706   1.401       .  A
C705        O711   1.318       .  A
C706        C707   1.401       .  A
C706        H717   1.082       .  S
C707        C716   1.359       .  A
C707        C708   1.381       .  A
C708        C709   1.402       .  A
C708        O714   1.318       .  A
C709        C710   1.401       .  A
C709        H718   1.082       .  S
C710        C713   1.358       .  A
O711        C712   1.331       .  A
C712        C713   1.394       .  A
C713        H719   1.082       .  S
O714        C715   1.330       .  A
C715        C716   1.390       .  A
C716        H720   1.082       .  S
C721        C726   1.380       .  A
C721        C722   1.402       .  A
C721        O727   1.318       .  A
C722        C723   1.401       .  A
C722        H733   1.082       .  S
C723        C732   1.360       .  A
C723        C724   1.379       .  A
C724        C725   1.405       .  A
C724        O730   1.319       .  A
C725        C726   1.404       .  A
C725        H734   1.082       .  S
C726        C729   1.364       .  A
O727        C728   1.330       .  A
C728        C729   1.393       .  A
C729        H735   1.082       .  S
O730        C731   1.333       .  A
C731        C732   1.394       .  A
C732        H736   1.082       .  S
C737        C742   1.380       .  A
C737        C738   1.403       .  A
C737        O743   1.318       .  A
C738        C739   1.402       .  A
C738        H749   1.082       .  S
C739        C748   1.360       .  A
C739        C740   1.379       .  A
C740        C741   1.404       .  A
C740        O746   1.318       .  A
C741        C742   1.403       .  A
C741        H750   1.082       .  S
C742        C745   1.362       .  A
O743        C744   1.330       .  A
C744        C745   1.392       .  A
C745        H751   1.082       .  S
O746        C747   1.333       .  A
C747        C748   1.394       .  A
C748        H752   1.082       .  S
C753        C758   1.379   1_455  A
C753        C754   1.400       .  A
C753        O759   1.315       .  A
C754        C755   1.400       .  A
C754        H765   1.082       .  S
C755        C764   1.356       .  A
C755        C756   1.378   1_455  A
C756        C757   1.404       .  A
C756        O762   1.319       .  A
C757        C758   1.403       .  A
C757        H766   1.082       .  S
C758        C761   1.362       .  A
O759        C760   1.332   1_455  A
C760        C761   1.396       .  A
C761        H767   1.081       .  S
O762        C763   1.333   1_655  A
C763        C764   1.396       .  A
C764        H768   1.081       .  S
C769        C774   1.381       .  A
C769        C770   1.401       .  A
C769        O775   1.317       .  A
C770        C771   1.400       .  A
C770        H781   1.082       .  S
C771        C780   1.358       .  A
C771        C772   1.379       .  A
C772        C773   1.404       .  A
C772        O778   1.319       .  A
C773        C774   1.403       .  A
C773        H782   1.082       .  S
C774        C777   1.362       .  A
O775        C776   1.330       .  A
C776        C777   1.391       .  A
C777        H783   1.082       .  S
O778        C779   1.333       .  A
C779        C780   1.393       .  A
C780        H784   1.082       .  S
C785        C790   1.380       .  A
C785        C786   1.403       .  A
C785        O791   1.320       .  A
C786        C787   1.403       .  A
C786        H797   1.082       .  S
C787        C796   1.360       .  A
C787        C788   1.379       .  A
C788        C789   1.404       .  A
C788        O794   1.320       .  A
C789        C790   1.403       .  A
C789        H798   1.082       .  S
C790        C793   1.362       .  A
O791        C792   1.331       .  A
C792        C793   1.391       .  A
C793        H799   1.082       .  S
O794        C795   1.333       .  A
C795        C796   1.396       .  A
C796        H800   1.081       .  S
C801        C806   1.379       .  A
C801        C802   1.403       .  A
C801        O807   1.319       .  A
C802        C803   1.403       .  A
C802        H813   1.082       .  S
C803        C812   1.361       .  A
C803        C804   1.380       .  A
C804        C805   1.403       .  A
C804        O810   1.319       .  A
C805        C806   1.402       .  A
C805        H814   1.082       .  S
C806        C809   1.359       .  A
O807        C808   1.333       .  A
C808        C809   1.395       .  A
C809        H815   1.081       .  S
O810        C811   1.331       .  A
C811        C812   1.391       .  A
C812        H816   1.082       .  S
C817        C822   1.378       .  A
C817        C818   1.404       .  A
C817        O823   1.317       .  A
C818        C819   1.403   1_556  A
C818        H829   1.082       .  S
C819        C828   1.362       .  A
C819        C820   1.378       .  A
C820        C821   1.403   1_554  A
C820        O826   1.317       .  A
C821        C822   1.402       .  A
C821        H830   1.082   1_556  S
C822        C825   1.362       .  A
O823        C824   1.334       .  A
C824        C825   1.395       .  A
C825        H831   1.081       .  S
O826        C827   1.332       .  A
C827        C828   1.397       .  A
C828        H832   1.081       .  S
C833        C838   1.380       .  A
C833        C834   1.402       .  A
C833        O839   1.319       .  A
C834        C835   1.402       .  A
C834        H845   1.082       .  S
C835        C844   1.359       .  A
C835        C836   1.379       .  A
C836        C837   1.405       .  A
C836        O842   1.320       .  A
C837        C838   1.404       .  A
C837        H846   1.082       .  S
C838        C841   1.362       .  A
O839        C840   1.330       .  A
C840        C841   1.392       .  A
C841        H847   1.082       .  S
O842        C843   1.333       .  A
C843        C844   1.394       .  A
C844        H848   1.082       .  S
C849        C854   1.379       .  A
C849        C850   1.404       .  A
C849        O855   1.320       .  A
C850        C851   1.404       .  A
C850        H861   1.082       .  S
C851        C860   1.362       .  A
C851        C852   1.380       .  A
C852        C853   1.403       .  A
C852        O858   1.319       .  A
C853        C854   1.403       .  A
C853        H862   1.082       .  S
C854        C857   1.360       .  A
O855        C856   1.333       .  A
C856        C857   1.395       .  A
C857        H863   1.082       .  S
O858        C859   1.331       .  A
C859        C860   1.392       .  A
C860        H864   1.082       .  S
C865        C870   1.379       .  A
C865        C866   1.404       .  A
C865        O871   1.319       .  A
C866        C867   1.403       .  A
C866        H877   1.082       .  S
C867        C876   1.363       .  A
C867        C868   1.381       .  A
C868        C869   1.400       .  A
C868        O874   1.316       .  A
C869        C870   1.400       .  A
C869        H878   1.082       .  S
C870        C873   1.358       .  A
O871        C872   1.333       .  A
C872        C873   1.394       .  A
C873        H879   1.082       .  S
O874        C875   1.329       .  A
C875        C876   1.391       .  A
C876        H880   1.082       .  S
C881        C886   1.378       .  A
C881        C882   1.404       .  A
C881        O887   1.319       .  A
C882        C883   1.404       .  A
C882        H893   1.082       .  S
C883        C892   1.362       .  A
C883        C884   1.381       .  A
C884        C885   1.399       .  A
C884        O890   1.316       .  A
C885        C886   1.399       .  A
C885        H894   1.082       .  S
C886        C889   1.356       .  A
O887        C888   1.333       .  A
C888        C889   1.395       .  A
C889        H895   1.081       .  S
O890        C891   1.328       .  A
C891        C892   1.392       .  A
C892        H896   1.083       .  S
