geometry optimzed in LAMMPS
_audit_creation_date              2020-12-01 
_audit_creation_method            'lammps2cif' 
_symmetry_space_group_name_H-M    'P1' 
_symmetry_Int_Tables_number       1 
_symmetry_cell_setting            triclinic 
loop_ 
_symmetry_equiv_pos_as_xyz 
  x,y,z 
_cell_length_a                    25.82402223 
_cell_length_b                    42.41639809047055 
_cell_length_c                    26.21180506529057 
_cell_angle_alpha                 84.2839635011364 
_cell_angle_beta                  105.27981056972787 
_cell_angle_gamma                 93.2972426324189 
loop_ 
_atom_site_label 
_atom_site_type_symbol 
_atom_site_fract_x 
_atom_site_fract_y 
_atom_site_fract_z 
_atom_site_charge 
O1          O  0.97431243  0.47234321  0.37139326    -0.81700
O2          O  0.95060742  0.48495369  0.59524804    -0.66400
O3          O  0.96015018  0.00647734  0.45279662    -1.13000
C4          C  0.14492635  0.99888303  0.53451961     1.05200
O5          O  0.01003426  0.02316034  0.62068880    -0.79600
O6          O  0.07069367  0.05469243  0.55941122    -0.67200
Ni7        Ni  0.91497442  0.48658507  0.39435766     1.34900
C8          C  0.06460122  0.06427719  0.51077737     0.83900
O9          O  0.87754434  0.99860462  0.50184048    -0.80200
O10         O  0.85312960  0.50017357  0.41229472    -0.90400
C11         C  0.97740911  0.00162455  0.63152544     0.83500
O12         O  0.90485595  0.44571488  0.42973373    -0.68600
O13         O  0.13424665  0.00504168  0.57712189    -0.87900
C14         C  0.91658434  0.43445778  0.47808976     0.84300
C15         C  0.84261137  0.50065500  0.45708049     1.05900
H16         H  0.03673871  0.46886590  0.54961442     0.37700
O17         O  0.02856801  0.49095394  0.53989405    -1.10600
O18         O  0.04836447  0.04591856  0.47385932    -0.67200
Ni19       Ni  0.03541859  0.00084993  0.46961951     1.26300
O20         O  0.94273579  0.45024119  0.51590475    -0.67500
O21         O  0.11061050  0.49530446  0.49037213    -0.79800
C22         C  0.01096950  0.49145970  0.36146281     0.83700
O23         O  0.03815756  0.00859320  0.39686212    -0.66900
Ni24       Ni  0.07081074  0.01359571  0.59643220     1.27400
Ni25       Ni  0.95305625  0.49498412  0.52263128     1.26100
H26         H  0.95358081  0.02888343  0.44522276     0.38200
O27         O  0.44420132  0.48890697  0.37067584    -0.81700
O28         O  0.47952288  0.47128356  0.61807626    -0.66400
O29         O  0.45774846  0.50550096  0.47438117    -1.13000
C30         C  0.64198287  0.48432123  0.50684750     1.05200
O31         O  0.55463291  0.99996128  0.64236360    -0.79600
O32         O  0.60608306  0.03194087  0.57479867    -0.67200
Ni33       Ni  0.40177758  0.48854656  0.42084766     1.34900
C34         C  0.58537748  0.05023638  0.53411030     0.83900
O35         O  0.39811973  0.49834842  0.54747990    -0.80200
O36         O  0.35275975  0.48648149  0.46554671    -0.90400
C37         C  0.51308946  0.48611013  0.65251838     0.83500
O38         O  0.42060808  0.44586569  0.44057076    -0.68600
O39         O  0.64278015  0.47699438  0.55541632    -0.87900
C40         C  0.42366764  0.43124428  0.48541197     0.84300
C41         C  0.35502710  0.49294271  0.51266357     1.05900
H42         H  0.53667160  0.45499297  0.53739441     0.37700
O43         O  0.53575714  0.47755961  0.54039344    -1.10600
O44         O  0.55034827  0.04000501  0.49495343    -0.67200
Ni45       Ni  0.52850565  0.49860462  0.47134791     1.26300
O46         O  0.43841193  0.44507387  0.52821625    -0.67500
O47         O  0.60029701  0.49220885  0.47055744    -0.79800
C48         C  0.48301695  0.50638463  0.36219799     0.83700
O49         O  0.51671323  0.01823475  0.40046522    -0.66900
Ni50       Ni  0.59615167  0.98798002  0.59636160     1.27400
Ni51       Ni  0.46684775  0.48732757  0.54545870     1.26100
H52         H  0.45233247  0.02782383  0.47324123     0.38200
O53         O  0.20908552  0.22444961  0.37169789    -0.81700
O54         O  0.22343156  0.23302582  0.60248898    -0.66400
O55         O  0.21822191  0.25854966  0.45861523    -1.13000
C56         C  0.39883893  0.23819611  0.50516517     1.05200
O57         O  0.30169822  0.25804480  0.63464495    -0.79600
O58         O  0.33331633  0.29460827  0.55813373    -0.67200
Ni59       Ni  0.16152444  0.24418444  0.40284562     1.34900
C60         C  0.33386067  0.30485518  0.51126975     0.83900
O61         O  0.14602018  0.25534181  0.52030603    -0.80200
O62         O  0.11042783  0.26213864  0.43151056    -0.90400
C63         C  0.25799924  0.24479234  0.64021044     0.83500
O64         O  0.14604536  0.20363102  0.43431587    -0.68600
O65         O  0.39811510  0.24802244  0.54923122    -0.87900
C66         C  0.16194371  0.18917430  0.47996836     0.84300
C67         C  0.10692504  0.26047642  0.47932096     1.05900
H68         H  0.29371394  0.21096393  0.54221401     0.37700
O69         O  0.29065866  0.23369522  0.53566312    -1.10600
O70         O  0.31837108  0.28790572  0.47217419    -0.67200
Ni71       Ni  0.28800692  0.24535927  0.46260276     1.26300
O72         O  0.19511321  0.20152754  0.51828043    -0.67500
O73         O  0.35747012  0.23150391  0.46912489    -0.79800
C74         C  0.24590391  0.24005816  0.35587418     0.83700
O75         O  0.28072207  0.25559293  0.38825791    -0.66900
Ni76       Ni  0.34618880  0.25238316  0.58826935     1.27400
Ni77       Ni  0.21881863  0.24490351  0.52968443     1.26100
H78         H  0.21809341  0.28143147  0.45493239     0.38200
O79         O  0.73890730  0.21739775  0.38559833    -0.81700
O80         O  0.72605351  0.22944729  0.61664966    -0.66400
O81         O  0.72153902  0.24726118  0.46980357    -1.13000
C82         C  0.91036477  0.24543644  0.53666601     1.05200
O83         O  0.78739538  0.26752772  0.63577150    -0.79600
O84         O  0.84894139  0.29624289  0.57238898    -0.67200
Ni85       Ni  0.68126047  0.22070415  0.41841952     1.34900
C86         C  0.83162145  0.30793761  0.52479343     0.83900
O87         O  0.64709527  0.24219012  0.52756951    -0.80200
O88         O  0.62019745  0.22279336  0.44687286    -0.90400
C89         C  0.75302089  0.24816267  0.64945722     0.83500
O90         O  0.70143644  0.18118258  0.45785076    -0.68600
O91         O  0.90450146  0.24401854  0.58370447    -0.87900
C92         C  0.69473034  0.17267450  0.50324110     0.84300
C93         C  0.61126850  0.23272941  0.48811489     1.05900
H94         H  0.80506647  0.21102552  0.55859840     0.37700
O95         O  0.79686190  0.23324829  0.55232287    -1.10600
O96         O  0.80247725  0.29200416  0.48849980    -0.67200
Ni97       Ni  0.79674271  0.24698452  0.48077220     1.26300
O98         O  0.70475967  0.19178929  0.53949610    -0.67500
O99         O  0.87215106  0.24668595  0.49447865    -0.79800
C100        C  0.76613421  0.24107869  0.37220586     0.83700
O101        O  0.79193399  0.25884524  0.40713723    -0.66900
Ni102      Ni  0.84443276  0.25482895  0.60779567     1.27400
Ni103      Ni  0.72176329  0.23715560  0.54231120     1.26100
H104        H  0.70924474  0.26860381  0.45914134     0.38200
O105        O  0.93041068  0.98859928  0.86734215    -0.81700
O106        O  0.98285377  0.00479204  0.10620227    -0.66400
O107        O  0.98764449  0.01310876  0.96060630    -1.13000
C108        C  0.06919303  0.41176804  0.00791746     1.05200
O109        O  0.06710456  0.49048198  0.12997730    -0.79600
O110        O  0.12657776  0.47471525  0.06398884    -0.67200
Ni111      Ni  0.92692029  0.02520518  0.90411688     1.34900
C112        C  0.13034085  0.48511100  0.01786304     0.83900
O113        O  0.95200110  0.05157761  0.02496915    -0.80200
O114        O  0.91971173  0.06279907  0.93642851    -0.90400
C115        C  0.02523634  0.99769477  0.14257527     0.83500
O116        O  0.86977396  0.00629558  0.93235715    -0.68600
O117        O  0.07608010  0.41759298  0.05620103    -0.87900
C118        C  0.86644065  0.49797809  0.97945190     0.84300
C119        C  0.92525949  0.06880555  0.98439212     1.05900
H120        H  0.98077824  0.45286625  0.03552240     0.37700
O121        O  0.00950888  0.46826399  0.03390200    -1.10600
O122        O  0.08959813  0.48855298  0.97776979    -0.67200
Ni123      Ni  0.01585101  0.47171460  0.96268122     1.26300
O124        O  0.90802947  0.99319599  0.01822213    -0.67500
O125        O  0.04454493  0.43013921  0.96817276    -0.79800
C126        C  0.97249305  0.48348505  0.85328620     0.83700
O127        O  0.01577745  0.47708997  0.88868436    -0.66900
Ni128      Ni  0.06934416  0.45471776  0.09052815     1.27400
Ni129      Ni  0.98180610  0.00987975  0.03181600     1.26100
H130        H  0.01583310  0.02874719  0.95826622     0.38200
O131        O  0.55307947  0.49229622  0.14614578    -0.81700
O132        O  0.52413551  0.49307829  0.89968512    -0.66400
O133        O  0.54022957  0.01749019  0.03917480    -1.13000
C134        C  0.35084990  0.49434105  0.00006344     1.05200
O135        O  0.45189359  0.02144043  0.86653832    -0.79600
O136        O  0.40699557  0.05309198  0.93122039    -0.67200
Ni137      Ni  0.59699408  0.49980228  0.09657386     1.34900
C138        C  0.41653939  0.06349699  0.97680226     0.83900
O139        O  0.60859681  0.01666308  0.96978087    -0.80200
O140        O  0.64922232  0.50567093  0.05560917    -0.90400
C141        C  0.48871773  0.00466065  0.86022201     0.83500
O142        O  0.58673886  0.45655008  0.08014658    -0.68600
O143        O  0.35217663  0.49969768  0.95169663    -0.87900
C144        C  0.57847884  0.44601692  0.03485384     0.84300
C145        C  0.65093412  0.51167017  0.00751174     1.05900
H146        H  0.45744969  0.47075660  0.97213090     0.37700
O147        O  0.46183369  0.49356477  0.97078099    -1.10600
O148        O  0.44286192  0.04806617  0.01887662    -0.66400
Ni149      Ni  0.46701902  0.50550806  0.04003528     1.26300
O150        O  0.55728700  0.46229159  0.99165701    -0.67500
O151        O  0.39314437  0.49332951  0.03882782    -0.79800
C152        C  0.51216563  0.50614931  0.15020891     0.83700
O153        O  0.47681484  0.01712684  0.11009574    -0.66900
Ni154      Ni  0.40519511  0.01023240  0.91277090     1.27400
Ni155      Ni  0.53473742  0.50517280  0.96961616     1.26100
H156        H  0.54471327  0.04029626  0.03806466     0.38200
O157        O  0.28126264  0.21316449  0.12705149    -0.81700
O158        O  0.25730945  0.22565079  0.88703214    -0.66400
O159        O  0.27610169  0.24618048  0.02827493    -1.13000
C160        C  0.08597713  0.23510908  0.99340888     1.05200
O161        O  0.18323384  0.25331729  0.85420703    -0.79600
O162        O  0.15486831  0.28860691  0.92256612    -0.67200
Ni163      Ni  0.33071225  0.22723346  0.08511295     1.34900
C164        C  0.16346858  0.29850730  0.96824940     0.83900
O165        O  0.34456127  0.24451172  0.96053990    -0.80200
O166        O  0.38471812  0.24012164  0.04823242    -0.90400
C167        C  0.22345919  0.23946159  0.84852228     0.83500
O168        O  0.33001767  0.18572100  0.06230987    -0.68600
O169        O  0.08693401  0.24113275  0.94503476    -0.87900
C170        C  0.31671319  0.17559643  0.01651922     0.84300
C171        C  0.38665561  0.24463695  0.99981550     1.05900
H172        H  0.18758634  0.20355831  0.95933830     0.37700
O173        O  0.19469754  0.22617290  0.95931864    -1.10600
O174        O  0.18434264  0.28147075  0.01082103    -0.67200
Ni175      Ni  0.20271780  0.23754039  0.02997324     1.26300
O176        O  0.28735060  0.19115674  0.97620058    -0.67500
O177        O  0.12834107  0.22917866  0.03060249    -0.79800
C178        C  0.24923071  0.23146834  0.13810376     0.83700
O179        O  0.21683085  0.24759361  0.10144052    -0.66900
Ni180      Ni  0.13926354  0.24617599  0.90361971     1.27400
Ni181      Ni  0.26909478  0.23518662  0.95842976     1.26100
H182        H  0.28301041  0.26881895  0.02802728     0.38200
O183        O  0.67755265  0.25454001  0.86986669    -0.81700
O184        O  0.72438459  0.27001262  0.11334061    -0.66400
O185        O  0.73011728  0.27501374  0.96888082    -1.13000
C186        C  0.80677920  0.17223670  0.02439827     1.05200
O187        O  0.80794307  0.25568877  0.13573455    -0.79600
O188        O  0.86768202  0.23365004  0.07363591    -0.67200
Ni189      Ni  0.66928776  0.28771454  0.91216927     1.34900
C190        C  0.87135117  0.24255429  0.02681205     0.83900
O191        O  0.69968772  0.31583197  0.03357434    -0.80200
O192        O  0.65583914  0.32311483  0.94739250    -0.90400
C193        C  0.76643569  0.26242005  0.14932784     0.83500
O194        O  0.61475220  0.26316762  0.93732329    -0.68600
O195        O  0.81131634  0.17870253  0.07190238    -0.87900
C196        C  0.60936831  0.25707639  0.98425225     0.84300
C197        C  0.66888516  0.33172523  0.99447986     1.05900
H198        H  0.71910984  0.21620273  0.04645546     0.37700
O199        O  0.74866739  0.23085655  0.04423433    -1.10600
O200        O  0.83014771  0.24816648  0.98823970    -0.67200
Ni201      Ni  0.75602937  0.23256429  0.97402061     1.26300
O202        O  0.64899532  0.25859679  0.02545425    -0.67500
O203        O  0.78316356  0.19006261  0.98315014    -0.79800
C204        C  0.72135584  0.24604575  0.86255633     0.83700
O205        O  0.75925981  0.23644473  0.90176149    -0.66900
Ni206      Ni  0.80819737  0.21776585  0.10171687     1.27400
Ni207      Ni  0.72418683  0.27335609  0.04001836     1.26100
H208        H  0.75909531  0.28995705  0.96595177     0.38200
C209        C  0.47945121  0.26964853  0.02260737    -0.02700
C210        C  0.44187767  0.24935861  0.99095208     0.07000
C211        C  0.46021311  0.23023975  0.95831817    -0.02800
C212        C  0.51516477  0.23162981  0.95750760    -0.02800
C213        C  0.55314528  0.25125742  0.99070452     0.07100
C214        C  0.53459843  0.26961920  0.02435028    -0.03000
Br215      Br  0.58341951  0.29631815  0.07221325    -0.01500
Br216      Br  0.45442688  0.29968734  0.06098065    -0.01600
Br217      Br  0.53891771  0.20508676  0.91294795    -0.01600
Br218      Br  0.41078829  0.20110198  0.91609799    -0.01500
C219        C  0.96974267  0.26119936  0.04467566    -0.02700
C220        C  0.92593567  0.24318246  0.01594357     0.07000
C221        C  0.93603591  0.22238832  0.98060280    -0.02800
C222        C  0.98891894  0.21763561  0.97791795    -0.02800
C223        C  0.03240072  0.23611642  0.00545854     0.07100
C224        C  0.02201190  0.25885373  0.03743753    -0.03000
Br225      Br  0.07779086  0.28893123  0.06747362    -0.01500
Br226      Br  0.95732999  0.29068615  0.09128550    -0.01600
Br227      Br  0.00229077  0.18464974  0.93756321    -0.01600
Br228      Br  0.87835930  0.20025837  0.93396131    -0.01500
C229        C  0.33629362  0.09823315  0.96099733    -0.02700
C230        C  0.39211180  0.09360714  0.98303381     0.07000
C231        C  0.42185991  0.11519052  0.01820449    -0.02800
C232        C  0.39693966  0.14128382  0.03015094    -0.02800
C233        C  0.34100537  0.14579156  0.00854252     0.07100
C234        C  0.31094150  0.12379797  0.97434693    -0.03000
Br235      Br  0.23397081  0.12732404  0.94857559    -0.01500
Br236      Br  0.29257092  0.06858821  0.91493990    -0.01600
Br237      Br  0.44188916  0.17161814  0.07398219    -0.01600
Br238      Br  0.49790306  0.10970828  0.04928690    -0.01500
C239        C  0.56678727  0.39270182  0.99883149    -0.02700
C240        C  0.59957586  0.41479044  0.03062318     0.07000
C241        C  0.65533581  0.40969898  0.04995166    -0.02800
C242        C  0.67799061  0.38311253  0.03696486    -0.02800
C243        C  0.64535048  0.36107312  0.00471158     0.07100
C244        C  0.58948867  0.36637812  0.98487994    -0.03000
Br245      Br  0.54280746  0.33801925  0.93840870    -0.01500
Br246      Br  0.49004146  0.39796507  0.97643154    -0.01600
Br247      Br  0.75502853  0.37879491  0.05916754    -0.01600
Br248      Br  0.70242194  0.43995370  0.09183644    -0.01500
C249        C  0.76528064  0.48641126  0.95282271    -0.02700
C250        C  0.81145842  0.49771156  0.98976189     0.07000
C251        C  0.80349295  0.01477100  0.03095491    -0.02800
C252        C  0.75132420  0.02201280  0.03299180    -0.02800
C253        C  0.70521954  0.51028211  0.99667464     0.07100
C254        C  0.71281384  0.49216127  0.95669542    -0.03000
Br255      Br  0.65172655  0.47350682  0.90832716    -0.01500
Br256      Br  0.77376922  0.46113046  0.89845401    -0.01600
Br257      Br  0.74338016  0.04996535  0.08438222    -0.01600
Br258      Br  0.86321372  0.02930445  0.08547449    -0.01500
C259        C  0.20330098  0.47056379  0.97796614    -0.02700
C260        C  0.18582084  0.49017867  0.01040768     0.07000
C261        C  0.22406269  0.01025972  0.04193350    -0.02800
C262        C  0.27863899  0.01103554  0.04044692    -0.02800
C263        C  0.29622830  0.49031501  0.00968517     0.07100
C264        C  0.25822141  0.46958474  0.97962829    -0.03000
Br265      Br  0.28204662  0.43851281  0.94229466    -0.01500
Br266      Br  0.15265908  0.44469399  0.93041496    -0.01600
Br267      Br  0.32807593  0.04200484  0.07787551    -0.01600
Br268      Br  0.20065334  0.03822538  0.08450129    -0.01500
C269        C  0.92057377  0.11747165  0.03026184    -0.02700
C270        C  0.89541975  0.09602671  0.99308584     0.07000
C271        C  0.83996467  0.09924610  0.96688327    -0.02800
C272        C  0.81022039  0.12301924  0.97911103    -0.02800
C273        C  0.83524975  0.14407676  0.01710243     0.07100
C274        C  0.89054855  0.14062986  0.04359530    -0.03000
Br275      Br  0.92739467  0.16802341  0.09732098    -0.01500
Br276      Br  0.99769457  0.11751820  0.05827041    -0.01600
Br277      Br  0.73407690  0.12560500  0.94602360    -0.01600
Br278      Br  0.80314743  0.07154528  0.91363717    -0.01500
C279        C  0.14818748  0.37626944  0.02289234    -0.02700
C280        C  0.09368116  0.38286378  0.99743122     0.07000
C281        C  0.06407816  0.36289721  0.95948803    -0.02800
C282        C  0.08825216  0.33676535  0.94690197    -0.02800
C283        C  0.14247909  0.32978290  0.97304244     0.07100
C284        C  0.17235788  0.35001284  0.01050470    -0.03000
Br285      Br  0.24729517  0.34230728  0.04376730    -0.01500
Br286      Br  0.19125268  0.40336234  0.07417836    -0.01600
Br287      Br  0.04415527  0.30944924  0.89656028    -0.01600
Br288      Br  0.98836348  0.36936315  0.92850654    -0.01500
C289        C  0.78776929  0.25376612  0.74775100    -0.02700
C290        C  0.74408059  0.24806015  0.70362035     0.07000
C291        C  0.69215763  0.24258628  0.71189198    -0.02800
C292        C  0.68475490  0.24052927  0.76368131    -0.02800
C293        C  0.72836650  0.24686124  0.80755947     0.07100
C294        C  0.77917659  0.25537657  0.79830312    -0.03000
Br295      Br  0.83624329  0.27315095  0.85265807    -0.01500
Br296      Br  0.86082439  0.25744000  0.74109352    -0.01600
Br297      Br  0.61440743  0.22833186  0.77335914    -0.01600
Br298      Br  0.62976485  0.24015403  0.65239264    -0.01500
C299        C  0.71826465  0.24482417  0.27538784    -0.02700
C300        C  0.76666494  0.24758055  0.31554961     0.07000
C301        C  0.81480058  0.25573883  0.30090835    -0.02800
C302        C  0.81405085  0.26348943  0.24711048    -0.02800
C303        C  0.76609894  0.25922989  0.20658305     0.07100
C304        C  0.71850924  0.24886351  0.22150178    -0.03000
Br305      Br  0.65408563  0.23633642  0.16970292    -0.01500
Br306      Br  0.65048622  0.23557569  0.29336610    -0.01600
Br307      Br  0.87926640  0.28059425  0.23042473    -0.01600
Br308      Br  0.88287891  0.25186405  0.35323039    -0.01500
C309        C  0.23268756  0.21259470  0.77119028    -0.02700
C310        C  0.23198954  0.24080618  0.79514779     0.07000
C311        C  0.23911969  0.27042833  0.76787108    -0.02800
C312        C  0.24670438  0.27180119  0.71656704    -0.02800
C313        C  0.24761378  0.24352034  0.69274979     0.07100
C314        C  0.24173599  0.21394314  0.72049625    -0.03000
Br315      Br  0.25034847  0.17529898  0.69079293    -0.01500
Br316      Br  0.21865319  0.17216427  0.80657372    -0.01600
Br317      Br  0.25554512  0.31247210  0.67892147    -0.01600
Br318      Br  0.24043124  0.30911748  0.80147917    -0.01500
C319        C  0.19958099  0.23331491  0.20773675    -0.02700
C320        C  0.24876936  0.23340974  0.19392310     0.07000
C321        C  0.29750494  0.23608949  0.23359170    -0.02800
C322        C  0.29686880  0.23684479  0.28693756    -0.02800
C323        C  0.24766367  0.23900881  0.30011922     0.07100
C324        C  0.19898330  0.23824187  0.25969348    -0.03000
Br325      Br  0.13075167  0.24522048  0.27379745    -0.01500
Br326      Br  0.13277871  0.22327324  0.15741422    -0.01600
Br327      Br  0.36323175  0.23162143  0.34148395    -0.01600
Br328      Br  0.36549285  0.24036375  0.21524121    -0.01500
C329        C  0.47044098  0.25827896  0.46303608    -0.02700
C330        C  0.45086333  0.23503605  0.49612949     0.07000
C331        C  0.48336530  0.21076902  0.52573394    -0.02800
C332        C  0.53633068  0.20981150  0.52283157    -0.02800
C333        C  0.55605858  0.23307637  0.49003297     0.07100
C334        C  0.52322616  0.25694958  0.45938023    -0.03000
Br335      Br  0.55164457  0.28849368  0.41456810    -0.01500
Br336      Br  0.42702558  0.29325806  0.42624364    -0.01600
Br337      Br  0.58128890  0.17675571  0.56401533    -0.01600
Br338      Br  0.45538204  0.17941846  0.57119032    -0.01500
C339        C  0.01786841  0.23466994  0.47127077    -0.02700
C340        C  0.05379439  0.26014500  0.48857875     0.07000
C341        C  0.04375758  0.27995239  0.52454059    -0.02800
C342        C  0.99777285  0.27424142  0.54335344    -0.02800
C343        C  0.96393304  0.24752855  0.52848211     0.07100
C344        C  0.97504482  0.22727737  0.49386774    -0.03000
Br345      Br  0.93186053  0.18883080  0.47857132    -0.01500
Br346      Br  0.02579487  0.20945156  0.41660644    -0.01600
Br347      Br  0.98018474  0.30404027  0.58676211    -0.01600
Br348      Br  0.09175804  0.31570131  0.54556127    -0.01500
C349        C  0.49097335  0.02018707  0.71536456    -0.02700
C350        C  0.50215598  0.48991704  0.70395447     0.07000
C351        C  0.50629390  0.46415713  0.74279637    -0.02800
C352        C  0.50049432  0.46879508  0.79347049    -0.02800
C353        C  0.49196272  0.49951762  0.80596899     0.07100
C354        C  0.48694114  0.02517170  0.76643659    -0.03000
Br355      Br  0.47854995  0.06771737  0.78265410    -0.01500
Br356      Br  0.48009286  0.05477855  0.66024518    -0.01600
Br357      Br  0.50240530  0.43255978  0.84463845    -0.01600
Br358      Br  0.52189346  0.42278266  0.72696465    -0.01500
C359        C  0.54512331  0.52136990  0.24350656    -0.02700
C360        C  0.50435626  0.50820935  0.20352778     0.07000
C361        C  0.45574702  0.49720584  0.21431475    -0.02800
C362        C  0.44682023  0.50035163  0.26403765    -0.02800
C363        C  0.48963869  0.51029933  0.30670185     0.07100
C364        C  0.53899362  0.52127108  0.29548051    -0.03000
Br365      Br  0.59991080  0.53566198  0.34962942    -0.01500
Br366      Br  0.60901490  0.54045312  0.22639483    -0.01600
Br367      Br  0.37370757  0.49236472  0.26986287    -0.01600
Br368      Br  0.40270021  0.47484887  0.16255522    -0.01500
C369        C  0.35590978  0.38818522  0.45157987    -0.02700
C370        C  0.40476759  0.39762534  0.48728664     0.07000
C371        C  0.43171795  0.37568454  0.52807878    -0.02800
C372        C  0.40809774  0.34557311  0.53629024    -0.02800
C373        C  0.35766566  0.33684457  0.50275636     0.07100
C374        C  0.33255211  0.35791421  0.45951212    -0.03000
Br375      Br  0.26379820  0.34641043  0.41328097    -0.01500
Br376      Br  0.31659027  0.41735037  0.39477484    -0.01600
Br377      Br  0.44691643  0.31621852  0.59279649    -0.01600
Br378      Br  0.50263156  0.38622850  0.57100453    -0.01500
C379        C  0.64831519  0.09604194  0.57164767    -0.02700
C380        C  0.60690567  0.08407989  0.52988798     0.07000
C381        C  0.59184955  0.10337721  0.48120375    -0.02800
C382        C  0.62302519  0.13067951  0.47158503    -0.02800
C383        C  0.66784683  0.14089477  0.51175167     0.07100
C384        C  0.67961514  0.12341949  0.56199694    -0.03000
Br385      Br  0.74030882  0.13610000  0.61774232    -0.01500
Br386      Br  0.65915851  0.07790580  0.64435066    -0.01600
Br387      Br  0.60104231  0.15429228  0.40252882    -0.01600
Br388      Br  0.52493111  0.09546115  0.42848646    -0.01500
C389        C  0.98223505  0.46607218  0.71557863    -0.02700
C390        C  0.97190222  0.99610943  0.68689065     0.07000
C391        C  0.96138339  0.02159954  0.71301625    -0.02800
C392        C  0.95967135  0.01696222  0.76661119    -0.02800
C393        C  0.97134510  0.48719988  0.79578737     0.07100
C394        C  0.98260298  0.46177367  0.76992410    -0.03000
Br395      Br  0.99760408  0.42086868  0.80865361    -0.01500
Br396      Br  0.99993856  0.43127195  0.68165187    -0.01600
Br397      Br  0.94308670  0.05210095  0.80045188    -0.01600
Br398      Br  0.94981373  0.06325182  0.67558142    -0.01500
C399        C  0.00404754  0.02254892  0.21857472    -0.02700
C400        C  0.02619912  0.99756992  0.20012527     0.07000
C401        C  0.04831903  0.47190296  0.23711423    -0.02800
C402        C  0.04629115  0.47088711  0.29069196    -0.02800
C403        C  0.02007869  0.49453502  0.30745178     0.07100
C404        C  0.99972628  0.02059017  0.27144104    -0.03000
Br405      Br  0.96429639  0.05327711  0.29444657    -0.01500
Br406      Br  0.98311703  0.06068987  0.17303630    -0.01600
Br407      Br  0.08051320  0.43754024  0.34194933    -0.01600
Br408      Br  0.07875641  0.43681216  0.21468520    -0.01500
C409        C  0.73186000  0.00975559  0.51803121    -0.02700
C410        C  0.69301427  0.48772410  0.49252796     0.07000
C411        C  0.69988834  0.47369106  0.44837342    -0.02800
C412        C  0.74785431  0.47962757  0.43284240    -0.02800
C413        C  0.78679086  0.50149294  0.45921695     0.07100
C414        C  0.77636074  0.01833131  0.49863111    -0.03000
Br415      Br  0.82362552  0.05330695  0.52632553    -0.01500
Br416      Br  0.72668729  0.02801665  0.58081238    -0.01600
Br417      Br  0.76080781  0.45594680  0.37839652    -0.01600
Br418      Br  0.64547220  0.44467148  0.41180119    -0.01500
C419        C  0.23479587  0.02385646  0.54241117    -0.02700
C420        C  0.20079269  0.99654560  0.53620766     0.07000
C421        C  0.21989563  0.46727754  0.53018643    -0.02800
C422        C  0.27283179  0.46566185  0.52760457    -0.02800
C423        C  0.30488329  0.49358592  0.52734779     0.07100
C424        C  0.28713588  0.02241859  0.53749509    -0.03000
Br425      Br  0.33362149  0.05995454  0.54277976    -0.01500
Br426      Br  0.20907797  0.06360058  0.55422968    -0.01600
Br427      Br  0.30235377  0.42503046  0.52908810    -0.01600
Br428      Br  0.17356907  0.42962300  0.52545155    -0.01500
C429        C  0.90135460  0.37696372  0.46148825    -0.02700
C430        C  0.89623703  0.40194213  0.49115628     0.07000
C431        C  0.86774150  0.39625792  0.53082533    -0.02800
C432        C  0.84604986  0.36574323  0.54146552    -0.02800
C433        C  0.84988846  0.34092246  0.51078415     0.07100
C434        C  0.87770793  0.34688346  0.47067848    -0.03000
Br435      Br  0.88766462  0.31358274  0.43014436    -0.01500
Br436      Br  0.94371290  0.38337162  0.41015681    -0.01600
Br437      Br  0.80987300  0.35820217  0.59756427    -0.01600
Br438      Br  0.85442151  0.43046365  0.56863229    -0.01500
C439        C  0.13602748  0.13447701  0.45204074    -0.02700
C440        C  0.13792655  0.15707666  0.48846759     0.07000
C441        C  0.10991665  0.15058977  0.52808144    -0.02800
C442        C  0.08160031  0.12139206  0.53219577    -0.02800
C443        C  0.08209735  0.09777077  0.49764361     0.07100
C444        C  0.10771762  0.10526164  0.45583072    -0.03000
Br445      Br  0.10699095  0.07596152  0.40357360    -0.01500
Br446      Br  0.17557769  0.14280126  0.39853380    -0.01600
Br447      Br  0.03908769  0.11507775  0.58334468    -0.01600
Br448      Br  0.10821978  0.18218616  0.57587211    -0.01500
O449        O  0.97432016  0.97233533  0.37139590    -0.81700
O450        O  0.95060170  0.98494421  0.59524849    -0.66400
O451        O  0.96016037  0.50648888  0.45279860    -1.13000
C452        C  0.14493114  0.49887541  0.53451116     1.05200
O453        O  0.01005616  0.52316038  0.62070237    -0.79600
O454        O  0.07069913  0.55469353  0.55941041    -0.67200
Ni455      Ni  0.91497356  0.98656735  0.39435764     1.34900
C456        C  0.06461717  0.56427632  0.51077698     0.83900
O457        O  0.87755331  0.49862444  0.50184326    -0.80200
O458        O  0.85312075  0.00014634  0.41229210    -0.90400
C459        C  0.97742111  0.50162807  0.63153045     0.83500
O460        O  0.90486952  0.94569624  0.42973754    -0.68600
O461        O  0.13425527  0.50504280  0.57711061    -0.87900
C462        C  0.91659649  0.93444134  0.47809474     0.84300
C463        C  0.84260262  0.00063095  0.45707737     1.05900
H464        H  0.03674021  0.96886433  0.54961286     0.37700
O465        O  0.02856253  0.99095160  0.53989319    -1.10600
O466        O  0.04839133  0.54591573  0.47386089    -0.67200
Ni467      Ni  0.03542491  0.50084892  0.46961969     1.26300
O468        O  0.94274164  0.95022791  0.51590858    -0.67500
O469        O  0.11060864  0.99531811  0.49037582    -0.79800
C470        C  0.01096796  0.99145834  0.36146232     0.83700
O471        O  0.03816598  0.50859098  0.39686393    -0.66900
Ni472      Ni  0.07082455  0.51359621  0.59643147     1.27400
Ni473      Ni  0.95304847  0.99497236  0.52262993     1.26100
H474        H  0.95360072  0.52889631  0.44522741     0.38200
O475        O  0.44421075  0.98890679  0.37068175    -0.81700
O476        O  0.47951407  0.97129874  0.61808192    -0.66400
O477        O  0.45774473  0.00550745  0.47438268    -1.13000
C478        C  0.64197986  0.98432320  0.50685766     1.05200
O479        O  0.55463720  0.49994904  0.64235972    -0.79600
O480        O  0.60607666  0.53193425  0.57479502    -0.67200
Ni481      Ni  0.40178074  0.98854656  0.42084987     1.34900
C482        C  0.58537361  0.55022905  0.53410508     0.83900
O483        O  0.39811075  0.99836016  0.54747497    -0.80200
O484        O  0.35275755  0.98648218  0.46554539    -0.90400
C485        C  0.51308408  0.98612415  0.65252356     0.83500
O486        O  0.42062117  0.94586783  0.44058412    -0.68600
O487        O  0.64277637  0.97699700  0.55542656    -0.87900
C488        C  0.42366905  0.93124966  0.48542550     0.84300
C489        C  0.35501996  0.99294963  0.51265850     1.05900
H490        H  0.53666505  0.95500136  0.53740231     0.37700
O491        O  0.53575207  0.97756811  0.54040101    -1.10600
O492        O  0.55035239  0.53999676  0.49494365    -0.67200
Ni493      Ni  0.52850398  0.99861242  0.47135588     1.26300
O494        O  0.43840440  0.94508309  0.52822635    -0.67500
O495        O  0.60029635  0.99221614  0.47056886    -0.79800
C496        C  0.48302329  0.00638898  0.36220602     0.83700
O497        O  0.51671261  0.51822725  0.40045667    -0.66900
Ni498      Ni  0.59615538  0.48797227  0.59635431     1.27400
Ni499      Ni  0.46684112  0.98733798  0.54546175     1.26100
H500        H  0.45233942  0.52781727  0.47324508     0.38200
O501        O  0.20911506  0.72444731  0.37170544    -0.81700
O502        O  0.22343763  0.73302621  0.60248927    -0.66400
O503        O  0.21823894  0.75854780  0.45861828    -1.13000
C504        C  0.39885874  0.73820778  0.50518108     1.05200
O505        O  0.30170446  0.75804186  0.63465747    -0.79600
O506        O  0.33329397  0.79461340  0.55813779    -0.67200
Ni507      Ni  0.16154632  0.74417915  0.40284747     1.34900
C508        C  0.33385396  0.80486038  0.51127808     0.83900
O509        O  0.14603225  0.75533784  0.52030310    -0.80200
O510        O  0.11044225  0.76212996  0.43150719    -0.90400
C511        C  0.25800143  0.74479109  0.64021473     0.83500
O512        O  0.14607255  0.70362542  0.43431969    -0.68600
O513        O  0.39812811  0.74804140  0.54924001    -0.87900
C514        C  0.16196781  0.68917059  0.47997413     0.84300
C515        C  0.10693738  0.76046835  0.47931686     1.05900
H516        H  0.29373398  0.71096584  0.54222666     0.37700
O517        O  0.29067473  0.73369679  0.53567263    -1.10600
O518        O  0.31838485  0.78790853  0.47218379    -0.67200
Ni519      Ni  0.28802719  0.74536033  0.46261217     1.26300
O520        O  0.19513292  0.70152577  0.51828658    -0.67500
O521        O  0.35749362  0.73150745  0.46914247    -0.79800
C522        C  0.24592975  0.74005936  0.35588095     0.83700
O523        O  0.28074704  0.75559362  0.38826677    -0.66900
Ni524      Ni  0.34619678  0.75239153  0.58827816     1.27400
Ni525      Ni  0.21883197  0.74490269  0.52968694     1.26100
H526        H  0.21810727  0.78142963  0.45493348     0.38200
O527        O  0.73891473  0.71738450  0.38560357    -0.81700
O528        O  0.72607250  0.72943116  0.61665914    -0.66400
O529        O  0.72155469  0.74724825  0.46981210    -1.13000
C530        C  0.91037943  0.74541586  0.53666591     1.05200
O531        O  0.78741964  0.76750826  0.63578302    -0.79600
O532        O  0.84896139  0.79622355  0.57239907    -0.67200
Ni533      Ni  0.68126870  0.72069664  0.41842334     1.34900
C534        C  0.83164069  0.80791934  0.52480433     0.83900
O535        O  0.64711411  0.74218042  0.52757997    -0.80200
O536        O  0.62020731  0.72279166  0.44687674    -0.90400
C537        C  0.75304160  0.74814563  0.64946778     0.83500
O538        O  0.70143117  0.68117202  0.45784800    -0.68600
O539        O  0.90451854  0.74399771  0.58370534    -0.87900
C540        C  0.69473000  0.67266333  0.50323986     0.84300
C541        C  0.61128360  0.73272601  0.48812250     1.05900
H542        H  0.80507901  0.71100687  0.55860247     0.37700
O543        O  0.79687762  0.73323001  0.55232855    -1.10600
O544        O  0.80249710  0.79198654  0.48850946    -0.67200
Ni545      Ni  0.79675699  0.74696742  0.48077770     1.26300
O546        O  0.70476863  0.69177609  0.53949841    -0.67500
O547        O  0.87216417  0.74666559  0.49448016    -0.79800
C548        C  0.76614402  0.74106408  0.37221091     0.83700
O549        O  0.79194685  0.75882940  0.40714281    -0.66900
Ni550      Ni  0.84445283  0.75480844  0.60780176     1.27400
Ni551      Ni  0.72178047  0.73714121  0.54231956     1.26100
H552        H  0.70926435  0.76859196  0.45915310     0.38200
O553        O  0.93040173  0.48859854  0.86733815    -0.81700
O554        O  0.98283926  0.50478744  0.10620169    -0.66400
O555        O  0.98763138  0.51310622  0.96060652    -1.13000
C556        C  0.06919865  0.91176843  0.00791720     1.05200
O557        O  0.06711719  0.99048257  0.12997977    -0.79600
O558        O  0.12658753  0.97471679  0.06398888    -0.67200
Ni559      Ni  0.92690589  0.52520177  0.90411755     1.34900
C560        C  0.13035094  0.98511273  0.01786324     0.83900
O561        O  0.95198676  0.55157326  0.02497196    -0.80200
O562        O  0.91969186  0.56279373  0.93643241    -0.90400
C563        C  0.02522330  0.49769256  0.14257378     0.83500
O564        O  0.86976105  0.50628674  0.93235579    -0.68600
O565        O  0.07608756  0.91759422  0.05620052    -0.87900
C566        C  0.86645300  0.99798606  0.97945268     0.84300
C567        C  0.92524218  0.56880069  0.98439620     1.05900
H568        H  0.98078851  0.95286988  0.03552322     0.37700
O569        O  0.00951997  0.96826688  0.03390255    -1.10600
O570        O  0.08960899  0.98855341  0.97776896    -0.67200
Ni571      Ni  0.01586122  0.97171632  0.96268130     1.26300
O572        O  0.90801713  0.49319118  0.01822227    -0.67500
O573        O  0.04455234  0.93014011  0.96817245    -0.79800
C574        C  0.97250007  0.98348493  0.85328763     0.83700
O575        O  0.01578590  0.97709054  0.88868417    -0.66900
Ni576      Ni  0.06935429  0.95471905  0.09052847     1.27400
Ni577      Ni  0.98179274  0.50987605  0.03181632     1.26100
H578        H  0.01581902  0.52874540  0.95826673     0.38200
O579        O  0.55308541  0.99229674  0.14615209    -0.81700
O580        O  0.52414331  0.99308884  0.89969370    -0.66400
O581        O  0.54021677  0.51748202  0.03916398    -1.13000
C582        C  0.35086213  0.99435136  0.00007694     1.05200
O583        O  0.45188427  0.52142773  0.86652581    -0.79600
O584        O  0.40698716  0.55308240  0.93120862    -0.67200
Ni585      Ni  0.59700534  0.99980927  0.09658450     1.34900
C586        C  0.41652735  0.56348639  0.97679130     0.83900
O587        O  0.60858453  0.51665644  0.96976977    -0.80200
O588        O  0.64923585  0.00568389  0.05562193    -0.90400
C589        C  0.48871008  0.50464823  0.86021179     0.83500
O590        O  0.58676034  0.95655757  0.08015220    -0.68600
O591        O  0.35218786  0.99970616  0.95170957    -0.87900
C592        C  0.57849219  0.94602486  0.03485819     0.84300
C593        C  0.65094738  0.01168027  0.00752358     1.05900
H594        H  0.45745917  0.97076737  0.97214256     0.37700
O595        O  0.46184410  0.99357546  0.97079220    -1.10600
O596        O  0.44284659  0.54805442  0.01886571    -0.66400
Ni597      Ni  0.46703136  0.00551895  0.04004677     1.26300
O598        O  0.55729336  0.96229950  0.99166358    -0.67500
O599        O  0.39315670  0.99334246  0.03884099    -0.79800
C600        C  0.51217671  0.00615376  0.15021942     0.83700
O601        O  0.47679969  0.51711646  0.11008353    -0.66900
Ni602      Ni  0.40518520  0.51022216  0.91275902     1.27400
Ni603      Ni  0.53474826  0.00518173  0.96962647     1.26100
H604        H  0.54469848  0.54028822  0.03805326     0.38200
O605        O  0.28126669  0.71315959  0.12705194    -0.81700
O606        O  0.25729288  0.72564274  0.88702554    -0.66400
O607        O  0.27609703  0.74617322  0.02827084    -1.13000
C608        C  0.08597114  0.73509993  0.99341638     1.05200
O609        O  0.18321841  0.75331123  0.85420809    -0.79600
O610        O  0.15485292  0.78859935  0.92256951    -0.67200
Ni611      Ni  0.33071078  0.72722635  0.08510619     1.34900
C612        C  0.16345847  0.79850001  0.96825319     0.83900
O613        O  0.34455229  0.74450343  0.96052903    -0.80200
O614        O  0.38471237  0.74011377  0.04822088    -0.90400
C615        C  0.22344032  0.73945435  0.84851833     0.83500
O616        O  0.33001239  0.68571322  0.06230213    -0.68600
O617        O  0.08692538  0.74112285  0.94504149    -0.87900
C618        C  0.31670539  0.67558854  0.01651116     0.84300
C619        C  0.38664800  0.74462953  0.99980368     1.05900
H620        H  0.18757773  0.70355119  0.95933980     0.37700
O621        O  0.19468904  0.72616577  0.95931928    -1.10600
O622        O  0.18433810  0.78146399  0.01082371    -0.67200
Ni623      Ni  0.20271375  0.73753343  0.02997452     1.26300
O624        O  0.28734111  0.69114905  0.97619393    -0.67500
O625        O  0.12833741  0.72917167  0.03060866    -0.79800
C626        C  0.24923606  0.73146417  0.13810495     0.83700
O627        O  0.21683145  0.74758701  0.10144215    -0.66900
Ni628      Ni  0.13925160  0.74616810  0.90362326     1.27400
Ni629      Ni  0.26908532  0.73517894  0.95842437     1.26100
H630        H  0.28300603  0.76881187  0.02802238     0.38200
O631        O  0.67755260  0.75454259  0.86986168    -0.81700
O632        O  0.72438627  0.77001974  0.11334478    -0.66400
O633        O  0.73011319  0.77501534  0.96888221    -1.13000
C634        C  0.80676113  0.67223361  0.02440120     1.05200
O635        O  0.80793907  0.75568611  0.13573581    -0.79600
O636        O  0.86767223  0.73363833  0.07364209    -0.67200
Ni637      Ni  0.66928076  0.78771289  0.91217155     1.34900
C638        C  0.87134463  0.74254812  0.02682127     0.83900
O639        O  0.69969592  0.81583951  0.03357384    -0.80200
O640        O  0.65582507  0.82311068  0.94739687    -0.90400
C641        C  0.76643511  0.76242131  0.14933108     0.83500
O642        O  0.61475359  0.76315880  0.93732866    -0.68600
O643        O  0.81128911  0.67869641  0.07190526    -0.87900
C644        C  0.60936650  0.75707733  0.98425833     0.84300
C645        C  0.66888306  0.83172789  0.99447988     1.05900
H646        H  0.71909541  0.71620704  0.04645512     0.37700
O647        O  0.74865692  0.73085848  0.04423685    -1.10600
O648        O  0.83014289  0.74816733  0.98824980    -0.67200
Ni649      Ni  0.75602350  0.73256555  0.97402479     1.26300
O650        O  0.64899095  0.75860739  0.02546034    -0.67500
O651        O  0.78315562  0.69006329  0.98315399    -0.79800
C652        C  0.72135733  0.74604426  0.86255916     0.83700
O653        O  0.75925882  0.73644530  0.90176813    -0.66900
Ni654      Ni  0.80818204  0.71776152  0.10172009     1.27400
Ni655      Ni  0.72418566  0.77336078  0.04002092     1.26100
H656        H  0.75909051  0.78995839  0.96594964     0.38200
C657        C  0.47943700  0.76964963  0.02259228    -0.02700
C658        C  0.44187043  0.74935415  0.99094132     0.07000
C659        C  0.46021610  0.73023030  0.95832161    -0.02800
C660        C  0.51517058  0.73162084  0.95752062    -0.02800
C661        C  0.55314268  0.75125689  0.99070863     0.07100
C662        C  0.53458637  0.76962293  0.02434226    -0.03000
Br663      Br  0.58339775  0.79632808  0.07220193    -0.01500
Br664      Br  0.45440019  0.79969003  0.06095354    -0.01600
Br665      Br  0.53894167  0.70506393  0.91299312    -0.01600
Br666      Br  0.41080138  0.70108520  0.91610876    -0.01500
C667        C  0.96974111  0.76118539  0.04469617    -0.02700
C668        C  0.92593027  0.74317487  0.01595490     0.07000
C669        C  0.93602668  0.72238531  0.98060572    -0.02800
C670        C  0.98890861  0.71763204  0.97791752    -0.02800
C671        C  0.03239483  0.73610642  0.00546799     0.07100
C672        C  0.02201052  0.75883839  0.03745858    -0.03000
Br673      Br  0.07779605  0.78890857  0.06750969    -0.01500
Br674      Br  0.95733373  0.79066605  0.09131818    -0.01600
Br675      Br  0.00227156  0.68465398  0.93754296    -0.01600
Br676      Br  0.87834550  0.70026136  0.93395916    -0.01500
C677        C  0.33628312  0.59822456  0.96098587    -0.02700
C678        C  0.39210048  0.59359686  0.98302422     0.07000
C679        C  0.42184857  0.61517914  0.01819729    -0.02800
C680        C  0.39692990  0.64127387  0.03014165    -0.02800
C681        C  0.34099615  0.64578323  0.00853205     0.07100
C682        C  0.31093218  0.62379087  0.97433330    -0.03000
Br683      Br  0.23396328  0.62732197  0.94854978    -0.01500
Br684      Br  0.29255977  0.56857906  0.91493021    -0.01600
Br685      Br  0.44188234  0.67160963  0.07396741    -0.01600
Br686      Br  0.49788951  0.60969293  0.04928792    -0.01500
C687        C  0.56679291  0.89270789  0.99884045    -0.02700
C688        C  0.59958766  0.91479871  0.03062243     0.07000
C689        C  0.65534992  0.90971021  0.04993314    -0.02800
C690        C  0.67799987  0.88312314  0.03694255    -0.02800
C691        C  0.64535233  0.86107873  0.00470652     0.07100
C692        C  0.58948945  0.86638353  0.98488480    -0.03000
Br693      Br  0.54280150  0.83802689  0.93841450    -0.01500
Br694      Br  0.49004625  0.89796920  0.97645909    -0.01600
Br695      Br  0.75504014  0.87881346  0.05910731    -0.01600
Br696      Br  0.70244480  0.93996920  0.09179905    -0.01500
C697        C  0.76528956  0.98643021  0.95281608    -0.02700
C698        C  0.81147045  0.99772143  0.98976262     0.07000
C699        C  0.80347686  0.51476727  0.03094532    -0.02800
C700        C  0.75130672  0.52200924  0.03297632    -0.02800
C701        C  0.70523359  0.01029219  0.99668540     0.07100
C702        C  0.71282429  0.99217922  0.95669461    -0.03000
Br703      Br  0.65173455  0.97353339  0.90831648    -0.01500
Br704      Br  0.77376995  0.96116702  0.89842149    -0.01600
Br705      Br  0.74335445  0.54996969  0.08435211    -0.01600
Br706      Br  0.86319302  0.52930524  0.08546418    -0.01500
C707        C  0.20331910  0.97056399  0.97797964    -0.02700
C708        C  0.18583096  0.99018260  0.01041003     0.07000
C709        C  0.22405979  0.51024939  0.04193771    -0.02800
C710        C  0.27863392  0.51102435  0.04044374    -0.02800
C711        C  0.29624128  0.99032280  0.00969917     0.07100
C712        C  0.25824121  0.96958670  0.97964871    -0.03000
Br713      Br  0.28207882  0.93850974  0.94233373    -0.01500
Br714      Br  0.15268503  0.94468953  0.93043028    -0.01600
Br715      Br  0.32807818  0.54198960  0.07787530    -0.01600
Br716      Br  0.20066527  0.53820581  0.08452994    -0.01500
C717        C  0.92055244  0.61746327  0.03027546    -0.02700
C718        C  0.89540199  0.59602164  0.99309166     0.07000
C719        C  0.83994909  0.59924424  0.96688180    -0.02800
C720        C  0.81020503  0.62301913  0.97910552    -0.02800
C721        C  0.83523057  0.64407294  0.01710495     0.07100
C722        C  0.89052593  0.64062150  0.04360748    -0.03000
Br723      Br  0.92736589  0.66800897  0.09734534    -0.01500
Br724      Br  0.99767140  0.61750575  0.05829879    -0.01600
Br725      Br  0.73406616  0.62561260  0.94599994    -0.01600
Br726      Br  0.80313330  0.57154337  0.91363454    -0.01500
C727        C  0.14818713  0.87626508  0.02289340    -0.02700
C728        C  0.09368184  0.88286201  0.99743212     0.07000
C729        C  0.06407455  0.86289478  0.95949207    -0.02800
C730        C  0.08824263  0.83675870  0.94691171    -0.02800
C731        C  0.14247030  0.82977580  0.97304811     0.07100
C732        C  0.17235398  0.85000730  0.01050494    -0.03000
Br733      Br  0.24729400  0.84230352  0.04375568    -0.01500
Br734      Br  0.19125552  0.90335560  0.07418175    -0.01600
Br735      Br  0.04413769  0.80943843  0.89658244    -0.01600
Br736      Br  0.98836254  0.86936714  0.92850479    -0.01500
C737        C  0.78778059  0.75376425  0.74776059    -0.02700
C738        C  0.74409742  0.74804633  0.70363008     0.07000
C739        C  0.69217527  0.74256393  0.71190152    -0.02800
C740        C  0.68476988  0.74050861  0.76368969    -0.02800
C741        C  0.72837419  0.74685362  0.80756566     0.07100
C742        C  0.77918210  0.75537644  0.79831033    -0.03000
Br743      Br  0.83623726  0.77316031  0.85266535    -0.01500
Br744      Br  0.86083701  0.75745555  0.74110781    -0.01600
Br745      Br  0.61443059  0.72829310  0.77337197    -0.01600
Br746      Br  0.62978407  0.74012107  0.65240378    -0.01500
C747        C  0.71826908  0.74481618  0.27539362    -0.02700
C748        C  0.76667193  0.74756721  0.31555408     0.07000
C749        C  0.81480689  0.75572490  0.30091137    -0.02800
C750        C  0.81405504  0.76347952  0.24711395    -0.02800
C751        C  0.76609969  0.75922778  0.20658701     0.07100
C752        C  0.71850882  0.74886454  0.22150634    -0.03000
Br753      Br  0.65407234  0.73635901  0.16970376    -0.01500
Br754      Br  0.65049352  0.73556234  0.29337564    -0.01600
Br755      Br  0.87927232  0.78058151  0.23042834    -0.01600
Br756      Br  0.88288654  0.75184583  0.35323077    -0.01500
C757        C  0.23266035  0.71259006  0.77118025    -0.02700
C758        C  0.23196628  0.74080053  0.79514189     0.07000
C759        C  0.23909810  0.77042347  0.76786817    -0.02800
C760        C  0.24669394  0.77179775  0.71656838    -0.02800
C761        C  0.24760606  0.74351775  0.69274980     0.07100
C762        C  0.24171402  0.71393988  0.72048827    -0.03000
Br763      Br  0.25031021  0.67529591  0.69077553    -0.01500
Br764      Br  0.21861064  0.67215945  0.80655376    -0.01600
Br765      Br  0.25554446  0.81246950  0.67892968    -0.01600
Br766      Br  0.24039123  0.80911220  0.80147251    -0.01500
C767        C  0.19959590  0.73330710  0.20774590    -0.02700
C768        C  0.24878115  0.73340935  0.19392517     0.07000
C769        C  0.29751894  0.73610151  0.23358643    -0.02800
C770        C  0.29688945  0.73685995  0.28693388    -0.02800
C771        C  0.24768541  0.73901383  0.30012313     0.07100
C772        C  0.19900181  0.73823780  0.25970216    -0.03000
Br773      Br  0.13076977  0.74521024  0.27381031    -0.01500
Br774      Br  0.13279532  0.72324884  0.15743440    -0.01600
Br775      Br  0.36326251  0.73165606  0.34147217    -0.01600
Br776      Br  0.36549926  0.74038714  0.21522183    -0.01500
C777        C  0.47046703  0.75829081  0.46306122    -0.02700
C778        C  0.45088572  0.73504794  0.49615153     0.07000
C779        C  0.48338241  0.71077711  0.52575064    -0.02800
C780        C  0.53634440  0.70981368  0.52284068    -0.02800
C781        C  0.55607537  0.73307785  0.49004350     0.07100
C782        C  0.52324933  0.75695643  0.45939947    -0.03000
Br783      Br  0.55167189  0.78849970  0.41458954    -0.01500
Br784      Br  0.42706000  0.79327574  0.42628067    -0.01600
Br785      Br  0.58129349  0.67674970  0.56400978    -0.01600
Br786      Br  0.45539798  0.67942972  0.57121073    -0.01500
C787        C  0.01788416  0.73465622  0.47126580    -0.02700
C788        C  0.05380619  0.76013304  0.48857410     0.07000
C789        C  0.04376727  0.77993801  0.52453827    -0.02800
C790        C  0.99778460  0.77422330  0.54335308    -0.02800
C791        C  0.96394654  0.74751024  0.52847874     0.07100
C792        C  0.97505874  0.72726202  0.49385995    -0.03000
Br793      Br  0.93187166  0.68881753  0.47855224    -0.01500
Br794      Br  0.02582154  0.70943561  0.41660849    -0.01600
Br795      Br  0.98019636  0.80401825  0.58676814    -0.01600
Br796      Br  0.09176426  0.81568781  0.54556314    -0.01500
C797        C  0.49095515  0.52017009  0.71534991    -0.02700
C798        C  0.50215389  0.98993161  0.70396143     0.07000
C799        C  0.50627321  0.96416908  0.74279724    -0.02800
C800        C  0.50047616  0.96880690  0.79347242    -0.02800
C801        C  0.49196711  0.99953122  0.80597838     0.07100
C802        C  0.48691859  0.52515544  0.76642024    -0.03000
Br803      Br  0.47849717  0.56769979  0.78262467    -0.01500
Br804      Br  0.48005659  0.55475744  0.66022295    -0.01600
Br805      Br  0.50235824  0.93257017  0.84463278    -0.01600
Br806      Br  0.52184432  0.92279087  0.72695728    -0.01500
C807        C  0.54514312  0.02136364  0.24352350    -0.02700
C808        C  0.50436868  0.00821260  0.20353969     0.07000
C809        C  0.45575173  0.99722070  0.21432236    -0.02800
C810        C  0.44682479  0.00037141  0.26404352    -0.02800
C811        C  0.48964922  0.01030581  0.30671210     0.07100
C812        C  0.53901257  0.02126435  0.29549724    -0.03000
Br813      Br  0.59993964  0.03563472  0.34965553    -0.01500
Br814      Br  0.60904583  0.04043520  0.22641983    -0.01600
Br815      Br  0.37370531  0.99241476  0.26986270    -0.01600
Br816      Br  0.40269409  0.97487102  0.16256261    -0.01500
C817        C  0.35592230  0.88818647  0.45158071    -0.02700
C818        C  0.40476694  0.89763073  0.48730381     0.07000
C819        C  0.43170036  0.87569458  0.52811396    -0.02800
C820        C  0.40807511  0.84558468  0.53632545    -0.02800
C821        C  0.35765730  0.83685121  0.50277093     0.07100
C822        C  0.33256136  0.85791595  0.45951098    -0.03000
Br823      Br  0.26382650  0.84640588  0.41325179    -0.01500
Br824      Br  0.31662445  0.91734461  0.39475050    -0.01600
Br825      Br  0.44686993  0.81623885  0.59286171    -0.01600
Br826      Br  0.50260154  0.88624145  0.57106382    -0.01500
C827        C  0.64830822  0.59603366  0.57164532    -0.02700
C828        C  0.60689752  0.58407299  0.52988586     0.07000
C829        C  0.59184002  0.60337103  0.48120291    -0.02800
C830        C  0.62301820  0.63067184  0.47158338    -0.02800
C831        C  0.66784306  0.64088487  0.51174922     0.07100
C832        C  0.67961184  0.62340895  0.56199376    -0.03000
Br833      Br  0.74031333  0.63608369  0.61773579    -0.01500
Br834      Br  0.65914805  0.57789903  0.64434882    -0.01600
Br835      Br  0.60103621  0.65428423  0.40252671    -0.01600
Br836      Br  0.52491628  0.59545787  0.42849073    -0.01500
C837        C  0.98224008  0.96607128  0.71557995    -0.02700
C838        C  0.97190602  0.49611171  0.68689226     0.07000
C839        C  0.96138721  0.52160172  0.71301760    -0.02800
C840        C  0.95967340  0.51696413  0.76661199    -0.02800
C841        C  0.97134873  0.98719899  0.79578812     0.07100
C842        C  0.98261179  0.96177356  0.76992643    -0.03000
Br843      Br  0.99762659  0.92087083  0.80866021    -0.01500
Br844      Br  0.99995542  0.93127276  0.68165729    -0.01600
Br845      Br  0.94309276  0.55210342  0.80045364    -0.01600
Br846      Br  0.94981510  0.56325334  0.67558058    -0.01500
C847        C  0.00403853  0.52254784  0.21857457    -0.02700
C848        C  0.02618778  0.49756828  0.20012364     0.07000
C849        C  0.04832765  0.97190419  0.23711657    -0.02800
C850        C  0.04629662  0.97088836  0.29069364    -0.02800
C851        C  0.02007759  0.99453435  0.30745067     0.07100
C852        C  0.99973118  0.52059248  0.27144502    -0.03000
Br853      Br  0.96433299  0.55328895  0.29446433    -0.01500
Br854      Br  0.98308396  0.56068339  0.17303042    -0.01600
Br855      Br  0.08052145  0.93754347  0.34195383    -0.01600
Br856      Br  0.07876712  0.93681340  0.21468993    -0.01500
C857        C  0.73186229  0.50975817  0.51803876    -0.02700
C858        C  0.69300985  0.98771810  0.49253527     0.07000
C859        C  0.69988002  0.97367384  0.44838943    -0.02800
C860        C  0.74784581  0.97960210  0.43285524    -0.02800
C861        C  0.78678315  0.00147214  0.45921394     0.07100
C862        C  0.77636592  0.51834057  0.49864641    -0.03000
Br863      Br  0.82363062  0.55330990  0.52636883    -0.01500
Br864      Br  0.72668222  0.52800690  0.58082866    -0.01600
Br865      Br  0.76079905  0.95590501  0.37842867    -0.01600
Br866      Br  0.64545792  0.94465181  0.41183381    -0.01500
C867        C  0.23479900  0.52384958  0.54240100    -0.02700
C868        C  0.20079680  0.49653814  0.53619658     0.07000
C869        C  0.21988846  0.96728532  0.53019247    -0.02800
C870        C  0.27282031  0.96566989  0.52759658    -0.02800
C871        C  0.30487347  0.99359359  0.52733993     0.07100
C872        C  0.28714148  0.52241165  0.53749319    -0.03000
Br873      Br  0.33362614  0.55994803  0.54277734    -0.01500
Br874      Br  0.20907738  0.56359518  0.55420741    -0.01600
Br875      Br  0.30233237  0.92503845  0.52905657    -0.01600
Br876      Br  0.17356218  0.92963067  0.52547140    -0.01500
C877        C  0.90136646  0.87694643  0.46149383    -0.02700
C878        C  0.89625234  0.90192488  0.49116376     0.07000
C879        C  0.86775843  0.89624050  0.53083436    -0.02800
C880        C  0.84606957  0.86572535  0.54147739    -0.02800
C881        C  0.84990715  0.84090447  0.51079579     0.07100
C882        C  0.87772171  0.84686593  0.47068648    -0.03000
Br883      Br  0.88767304  0.81356532  0.43014902    -0.01500
Br884      Br  0.94371309  0.88335454  0.41015226    -0.01600
Br885      Br  0.80989579  0.85818428  0.59757851    -0.01600
Br886      Br  0.85443190  0.93044703  0.56863611    -0.01500
C887        C  0.13605318  0.63447368  0.45204733    -0.02700
C888        C  0.13795128  0.65707303  0.48847428     0.07000
C889        C  0.10993573  0.65058725  0.52808398    -0.02800
C890        C  0.08161302  0.62139133  0.53219249    -0.02800
C891        C  0.08211323  0.59776973  0.49764222     0.07100
C892        C  0.10773689  0.60526020  0.45583166    -0.03000
Br893      Br  0.10700089  0.57596391  0.40356625    -0.01500
Br894      Br  0.17561386  0.64279568  0.39854850    -0.01600
Br895      Br  0.03908154  0.61508113  0.58332511    -0.01600
Br896      Br  0.10824045  0.68218218  0.57587746    -0.01500
loop_ 
_geom_bond_atom_site_label_1 
_geom_bond_atom_site_label_2 
_geom_bond_distance 
_geom_bond_site_symmetry_2 
_ccdc_geom_bond_type 
O1           Ni7   1.934       .  S
O1           C22   1.273   1_655  A
O2          Ni25   1.925       .  S
O2          C459   1.271       .  A
O3           H26   0.967       .  S
O3          Ni19   1.900   1_655  S
O3         Ni455   1.903   1_545  S
O3         Ni473   1.900   1_545  S
C4           O13   1.273   1_565  A
C4          O469   1.275       .  A
C4          C420   1.441       .  S
O5          Ni24   1.919       .  S
O5           C11   1.269   1_455  A
O6          Ni24   1.909       .  S
O6            C8   1.270       .  A
Ni7          O10   1.913       .  S
Ni7          O12   1.921       .  S
Ni7         O451   1.903       .  S
C8           O18   1.272       .  A
C8          C443   1.501       .  S
O9         Ni473   1.892       .  S
O9          C463   1.276   1_565  A
O10          C15   1.275       .  A
C11         O450   1.271   1_545  A
C11         C390   1.489   1_545  S
O12          C14   1.273       .  A
O13         Ni24   1.901       .  S
C14          O20   1.270       .  A
C14         C430   1.488       .  S
C15         O457   1.276       .  A
C15         C413   1.460       .  S
H16          O17   0.966       .  S
O17         Ni25   1.896   1_455  S
O17        Ni467   1.900       .  S
O17        Ni472   1.903       .  S
O18         Ni19   1.931       .  S
Ni19         O23   1.922       .  S
Ni19        O469   1.895   1_545  S
Ni19        O465   1.900   1_545  S
O20         Ni25   1.920       .  S
O21        Ni467   1.895       .  S
O21         C452   1.275       .  A
C22         O471   1.271       .  A
C22         C403   1.487       .  S
O23         C470   1.271   1_545  A
Ni24        O465   1.903   1_545  S
Ni25        O457   1.892       .  S
Ni25        O451   1.900       .  S
O27         Ni33   1.919       .  S
O27          C48   1.266       .  A
O28         Ni51   1.906       .  S
O28          C37   1.265       .  A
O29         H500   0.961       .  S
O29         Ni33   1.894       .  S
O29         Ni51   1.904       .  S
O29         Ni45   1.890       .  S
C30          O47   1.270       .  A
C30          O39   1.275       .  A
C30         C410   1.458       .  S
O31         Ni50   1.931       .  S
O31         C485   1.270       .  A
O32         Ni50   1.917   1_545  S
O32          C34   1.268       .  A
Ni33         O36   1.932       .  S
Ni33         O38   1.888       .  S
C34          O44   1.271       .  A
C34         C380   1.514       .  S
O35         Ni51   1.877       .  S
O35          C41   1.265       .  A
O36          C41   1.277       .  A
C37         O479   1.270       .  A
C37         C350   1.474       .  S
O38          C40   1.259       .  A
O39        Ni498   1.914       .  S
C40          O46   1.276       .  A
C40         C370   1.481       .  S
C41         C423   1.447       .  S
H42          O43   0.970       .  S
O43         Ni51   1.891       .  S
O43         Ni45   1.904       .  S
O43        Ni498   1.904       .  S
O44        Ni493   1.924   1_545  S
Ni45         O47   1.895       .  S
Ni45        O492   1.924       .  S
Ni45        O497   1.913       .  S
O46         Ni51   1.947       .  S
C48         O497   1.267       .  A
C48         C363   1.501       .  S
O49        Ni493   1.913   1_545  S
O49         C496   1.267       .  A
Ni50        O487   1.914       .  S
Ni50        O491   1.904       .  S
H52         O477   0.961       .  S
O53         Ni59   1.913       .  S
O53          C74   1.263       .  A
O54         Ni77   1.899       .  S
O54          C63   1.267       .  A
O55          H78   0.966       .  S
O55         Ni59   1.897       .  S
O55         Ni77   1.891       .  S
O55         Ni71   1.891       .  S
C56          O73   1.265       .  A
C56          O65   1.271       .  A
C56         C330   1.440       .  S
O57         Ni76   1.919       .  S
O57          C63   1.268       .  A
O58         Ni76   1.895       .  S
O58          C60   1.265       .  A
Ni59         O62   1.907       .  S
Ni59         O64   1.900       .  S
C60          O70   1.275       .  A
C60         C373   1.478       .  S
O61         Ni77   1.903       .  S
O61          C67   1.276       .  A
O62          C67   1.275       .  A
C63         C313   1.466       .  S
O64          C66   1.265       .  A
O65         Ni76   1.915       .  S
C66          O72   1.271       .  A
C66         C440   1.484       .  S
C67         C340   1.454       .  S
H68          O69   0.966       .  S
O69         Ni77   1.904       .  S
O69         Ni71   1.914       .  S
O69         Ni76   1.905       .  S
O70         Ni71   1.939       .  S
Ni71         O75   1.915       .  S
Ni71         O73   1.879       .  S
O72         Ni77   1.932       .  S
C74          O75   1.267       .  A
C74         C323   1.479       .  S
O79         Ni85   1.923       .  S
O79         C100   1.267       .  A
O80        Ni103   1.918       .  S
O80          C89   1.269       .  A
O81         H104   0.967       .  S
O81         Ni85   1.896       .  S
O81        Ni103   1.905       .  S
O81         Ni97   1.887       .  S
C82          O99   1.272       .  A
C82          O91   1.276       .  A
C82         C343   1.451       .  S
O83        Ni102   1.933       .  S
O83          C89   1.271       .  A
O84        Ni102   1.916       .  S
O84          C86   1.269       .  A
Ni85         O88   1.923       .  S
Ni85         O90   1.903       .  S
C86          O96   1.273       .  A
C86         C433   1.493       .  S
O87        Ni103   1.884       .  S
O87          C93   1.274       .  A
O88          C93   1.278       .  A
C89         C290   1.497       .  S
O90          C92   1.262       .  A
O91        Ni102   1.916       .  S
C92          O98   1.276       .  A
C92         C383   1.504       .  S
C93         C333   1.441       .  S
H94          O95   0.967       .  S
O95        Ni103   1.902       .  S
O95         Ni97   1.907       .  S
O95        Ni102   1.912       .  S
O96         Ni97   1.933       .  S
Ni97        O101   1.919       .  S
Ni97         O99   1.885       .  S
O98        Ni103   1.953       .  S
C100        O101   1.268       .  A
C100        C300   1.487       .  S
O105       Ni111   1.926   1_565  S
O105        C574   1.272       .  A
O106       Ni129   1.933       .  S
O106        C115   1.276   1_645  A
O107        H130   0.966   1_655  S
O107       Ni111   1.906       .  S
O107       Ni129   1.903   1_556  S
O107       Ni571   1.930   1_645  S
C108        O125   1.282   1_554  A
C108        O117   1.278       .  A
C108        C280   1.492   1_554  S
O109       Ni128   1.931       .  S
O109        C563   1.272       .  A
O110       Ni128   1.915       .  S
O110        C112   1.271       .  A
Ni111       O114   1.919       .  S
Ni111       O116   1.921       .  S
C112        O122   1.279   1_554  A
C112        C260   1.497       .  S
O113       Ni129   1.943       .  S
O113        C119   1.288   1_554  A
O114        C119   1.277       .  A
C115        O557   1.272       .  A
C115        C400   1.502       .  S
O116        C566   1.273   1_545  A
O117       Ni128   1.928       .  S
C118        O564   1.273       .  A
C118        O572   1.279   1_556  A
C118        C250   1.513       .  S
C119        C270   1.492       .  S
H120        O121   0.967   1_655  S
O121       Ni123   1.907   1_554  S
O121       Ni128   1.909       .  S
O121       Ni577   1.933   1_455  S
O122       Ni123   1.948       .  S
Ni123       O127   1.930       .  S
Ni123       O125   1.930       .  S
Ni123       O555   1.930   1_455  S
O124       Ni129   1.948   1_565  S
O124        C566   1.279   1_554  A
C126        O127   1.274   1_655  A
C126        O553   1.272       .  A
C126        C393   1.492       .  S
Ni129       O569   1.933   1_645  S
O131       Ni137   1.931       .  S
O131        C152   1.271       .  A
O132       Ni155   1.899       .  S
O132        C589   1.265       .  A
O133        H156   0.966       .  S
O133       Ni585   1.928   1_545  S
O133       Ni603   1.913   1_554  S
O133       Ni597   1.934       .  S
C134        O151   1.280       .  A
C134        O143   1.275   1_554  A
C134        C263   1.495       .  S
O135       Ni154   1.933       .  S
O135        C141   1.274       .  A
O136       Ni154   1.922       .  S
O136        C138   1.273       .  A
Ni137       O140   1.925       .  S
Ni137       O142   1.914       .  S
Ni137       O581   1.928       .  S
C138        O148   1.272   1_556  A
C138        C230   1.498       .  S
O139       Ni603   1.940       .  S
O139        C593   1.278   1_556  A
O140        C145   1.273       .  A
C141        O580   1.265   1_545  A
C141        C801   1.484   1_545  S
O142        C144   1.271       .  A
O143       Ni602   1.921       .  S
C144        O150   1.272   1_554  A
C144        C240   1.486       .  S
C145        O587   1.278   1_554  A
C145        C253   1.507   1_554  S
H146        O147   0.966       .  S
O147       Ni155   1.926       .  S
O147       Ni149   1.902   1_556  S
O147       Ni602   1.920       .  S
O148       Ni597   1.924       .  S
Ni149       O151   1.940       .  S
Ni149       O596   1.924       .  S
Ni149       O601   1.897       .  S
Ni149       O581   1.934       .  S
O150       Ni155   1.928       .  S
C152        O601   1.266       .  A
C152        C360   1.475       .  S
O153       Ni597   1.897       .  S
O153        C600   1.266       .  A
Ni154       O591   1.921   1_545  S
Ni154       O595   1.919   1_545  S
Ni155       O587   1.940       .  S
Ni155       O581   1.913   1_556  S
O157       Ni163   1.928       .  S
O157        C178   1.271       .  A
O158       Ni181   1.896       .  S
O158        C167   1.266       .  A
O159        H182   0.966       .  S
O159       Ni163   1.908       .  S
O159       Ni181   1.894   1_554  S
O159       Ni175   1.921       .  S
C160        O177   1.277   1_556  A
C160        O169   1.275       .  A
C160        C223   1.502   1_556  S
O161       Ni180   1.928       .  S
O161        C167   1.271       .  A
O162       Ni180   1.907       .  S
O162        C164   1.268       .  A
Ni163       O166   1.923       .  S
Ni163       O168   1.913       .  S
C164        O174   1.275   1_556  A
C164        C283   1.490       .  S
O165       Ni181   1.954       .  S
O165        C171   1.285       .  A
O166        C171   1.278   1_554  A
C167        C310   1.468       .  S
O168        C170   1.269       .  A
O169       Ni180   1.935       .  S
C170        O176   1.274   1_554  A
C170        C233   1.500       .  S
C171        C210   1.503       .  S
H172        O173   0.966       .  S
O173       Ni181   1.943       .  S
O173       Ni175   1.916   1_556  S
O173       Ni180   1.921       .  S
O174       Ni175   1.934       .  S
Ni175       O179   1.899       .  S
Ni175       O177   1.937       .  S
O176       Ni181   1.934       .  S
C178        O179   1.266       .  A
C178        C320   1.477       .  S
O183       Ni189   1.930       .  S
O183        C204   1.273       .  A
O184       Ni207   1.912       .  S
O184        C193   1.270       .  A
O185        H208   0.966       .  S
O185       Ni189   1.917       .  S
O185       Ni207   1.905   1_556  S
O185       Ni201   1.937       .  S
C186        O203   1.287   1_554  A
C186        O195   1.275       .  A
C186        C273   1.491       .  S
O187       Ni206   1.916       .  S
O187        C193   1.271       .  A
O188       Ni206   1.932       .  S
O188        C190   1.274       .  A
Ni189       O192   1.932       .  S
Ni189       O194   1.920       .  S
C190        O200   1.275   1_554  A
C190        C220   1.508       .  S
O191       Ni207   1.921       .  S
O191        C197   1.277   1_554  A
O192        C197   1.275       .  A
C193        C303   1.496       .  S
O194        C196   1.274       .  A
O195       Ni206   1.915       .  S
C196        O202   1.281   1_556  A
C196        C213   1.509       .  S
C197        C243   1.493   1_556  S
H198        O199   0.966       .  S
O199       Ni207   1.928       .  S
O199       Ni201   1.893   1_554  S
O199       Ni206   1.911       .  S
O200       Ni201   1.941       .  S
Ni201       O205   1.908       .  S
Ni201       O203   1.941       .  S
O202       Ni207   1.956       .  S
C204        O205   1.270       .  A
C204        C293   1.496       .  S
C209        C210   1.412   1_554  A
C209        C214   1.413       .  A
C209       Br216   1.935       .  S
C210        C211   1.418       .  A
C211        C212   1.423       .  A
C211       Br218   1.931       .  S
C212        C213   1.419       .  A
C212       Br217   1.931       .  S
C213        C214   1.420   1_556  A
C214       Br215   1.932       .  S
C219        C220   1.413       .  A
C219        C224   1.422   1_655  A
C219       Br226   1.928       .  S
C220        C221   1.421   1_554  A
C221        C222   1.413       .  A
C221       Br228   1.924       .  S
C222        C223   1.407   1_656  A
C222       Br227   1.934   1_655  S
C223        C224   1.419       .  A
C224       Br225   1.927       .  S
C229        C230   1.422       .  A
C229        C234   1.416       .  A
C229       Br236   1.932       .  S
C230        C231   1.411   1_556  A
C231        C232   1.412       .  A
C231       Br238   1.935       .  S
C232        C233   1.422       .  A
C232       Br237   1.935       .  S
C233        C234   1.412   1_554  A
C234       Br235   1.933       .  S
C239        C240   1.408   1_556  A
C239        C244   1.412       .  A
C239       Br246   1.932       .  S
C240        C241   1.416       .  A
C241        C242   1.410       .  A
C241       Br248   1.931       .  S
C242        C243   1.411       .  A
C242       Br247   1.934       .  S
C243        C244   1.422   1_554  A
C244       Br245   1.933       .  S
C249        C250   1.417       .  A
C249        C254   1.422       .  A
C249       Br256   1.930       .  S
C250        C699   1.422   1_556  A
C251        C252   1.415       .  A
C251        C698   1.422   1_544  A
C251       Br258   1.925       .  S
C252        C701   1.414   1_554  A
C252       Br257   1.938       .  S
C253        C254   1.419       .  A
C253        C700   1.414   1_556  A
C254       Br255   1.930       .  S
C259        C260   1.416   1_556  A
C259        C264   1.410       .  A
C259       Br266   1.928       .  S
C260        C709   1.413       .  A
C261        C262   1.419       .  A
C261        C708   1.413   1_545  A
C261       Br268   1.929       .  S
C262        C711   1.417   1_545  A
C262       Br267   1.929       .  S
C263        C264   1.410   1_554  A
C263        C710   1.417       .  A
C264       Br265   1.934       .  S
C269        C270   1.405   1_554  A
C269        C274   1.410       .  A
C269       Br276   1.932       .  S
C270        C271   1.424       .  A
C271        C272   1.412       .  A
C271       Br278   1.932       .  S
C272        C273   1.407   1_556  A
C272       Br277   1.933       .  S
C273        C274   1.423       .  A
C274       Br275   1.932       .  S
C279        C280   1.421   1_554  A
C279        C284   1.412       .  A
C279       Br286   1.933       .  S
C280        C281   1.408       .  A
C281        C282   1.410       .  A
C281       Br288   1.933   1_455  S
C282        C283   1.421       .  A
C282       Br287   1.934       .  S
C283        C284   1.410   1_556  A
C284       Br285   1.934       .  S
C289        C290   1.416       .  A
C289        C294   1.409       .  A
C289       Br296   1.936       .  S
C290        C291   1.416       .  A
C291        C292   1.414       .  A
C291       Br298   1.931       .  S
C292        C293   1.417       .  A
C292       Br297   1.934       .  S
C293        C294   1.417       .  A
C294       Br295   1.936       .  S
C299        C300   1.414       .  A
C299        C304   1.407       .  A
C299       Br306   1.939       .  S
C300        C301   1.410       .  A
C301        C302   1.411       .  A
C301       Br308   1.928       .  S
C302        C303   1.419       .  A
C302       Br307   1.933       .  S
C303        C304   1.419       .  A
C304       Br305   1.935       .  S
C309        C310   1.409       .  A
C309        C314   1.404       .  A
C309       Br316   1.929       .  S
C310        C311   1.410       .  A
C311        C312   1.404       .  A
C311       Br318   1.933       .  S
C312        C313   1.410       .  A
C312       Br317   1.933       .  S
C313        C314   1.407       .  A
C314       Br315   1.931       .  S
C319        C320   1.409       .  A
C319        C324   1.402       .  A
C319       Br326   1.930       .  S
C320        C321   1.413       .  A
C321        C322   1.406       .  A
C321       Br328   1.933       .  S
C322        C323   1.412       .  A
C322       Br327   1.929       .  S
C323        C324   1.416       .  A
C324       Br325   1.938       .  S
C329        C330   1.408       .  A
C329        C334   1.396       .  A
C329       Br336   1.930       .  S
C330        C331   1.401       .  A
C331        C332   1.393       .  A
C331       Br338   1.933       .  S
C332        C333   1.406       .  A
C332       Br337   1.925       .  S
C333        C334   1.403       .  A
C334       Br335   1.933       .  S
C339        C340   1.412       .  A
C339        C344   1.393   1_455  A
C339       Br346   1.930       .  S
C340        C341   1.405       .  A
C341        C342   1.401   1_455  A
C341       Br348   1.931       .  S
C342        C343   1.412       .  A
C342       Br347   1.930       .  S
C343        C344   1.402       .  A
C344       Br345   1.936       .  S
C349        C354   1.407       .  A
C349        C798   1.409   1_545  A
C349       Br356   1.931       .  S
C350        C351   1.406       .  A
C350        C797   1.409       .  A
C351        C352   1.409       .  A
C351       Br358   1.931       .  S
C352        C353   1.418       .  A
C352       Br357   1.930       .  S
C353        C589   1.484       .  S
C353        C802   1.412       .  A
C354        C801   1.412   1_545  A
C354       Br355   1.932       .  S
C359        C360   1.409       .  A
C359        C364   1.412       .  A
C359       Br366   1.935       .  S
C360        C361   1.402       .  A
C361        C362   1.402       .  A
C361       Br368   1.935       .  S
C362        C363   1.428       .  A
C362       Br367   1.942       .  S
C363        C364   1.425       .  A
C364       Br365   1.936       .  S
C369        C370   1.422       .  A
C369        C374   1.407       .  A
C369       Br376   1.939       .  S
C370        C371   1.406       .  A
C371        C372   1.405       .  A
C371       Br378   1.934       .  S
C372        C373   1.418       .  A
C372       Br377   1.935       .  S
C373        C374   1.408       .  A
C374       Br375   1.935       .  S
C379        C380   1.425       .  A
C379        C384   1.417       .  A
C379       Br386   1.937       .  S
C380        C381   1.420       .  A
C381        C382   1.412       .  A
C381       Br388   1.943       .  S
C382        C383   1.424       .  A
C382       Br387   1.940       .  S
C383        C384   1.413       .  A
C384       Br385   1.932       .  S
C389        C394   1.416       .  A
C389        C838   1.415       .  A
C389       Br396   1.932       .  S
C390        C391   1.411   1_565  A
C390        C837   1.415       .  A
C391        C392   1.411       .  A
C391       Br398   1.932       .  S
C392        C841   1.414   1_545  A
C392       Br397   1.931       .  S
C393        C394   1.412       .  A
C393        C840   1.414       .  A
C394       Br395   1.926       .  S
C399        C400   1.415   1_545  A
C399        C404   1.413   1_455  A
C399       Br406   1.926   1_455  S
C400        C849   1.422       .  A
C401        C402   1.415       .  A
C401        C848   1.422       .  A
C401       Br408   1.932       .  S
C402        C403   1.407       .  A
C402       Br407   1.930       .  S
C403        C852   1.409   1_455  A
C404        C851   1.409   1_645  A
C404       Br405   1.930       .  S
C409        C414   1.391       .  A
C409        C858   1.411   1_545  A
C409       Br416   1.925       .  S
C410        C411   1.408       .  A
C410        C857   1.411       .  A
C411        C412   1.405       .  A
C411       Br418   1.933       .  S
C412        C413   1.415       .  A
C412       Br417   1.932       .  S
C413        C862   1.403       .  A
C414        C861   1.403       .  A
C414       Br415   1.938       .  S
C419        C420   1.409   1_545  A
C419        C424   1.396       .  A
C419       Br426   1.929       .  S
C420        C869   1.400       .  A
C421        C422   1.392       .  A
C421        C868   1.400       .  A
C421       Br428   1.934       .  S
C422        C423   1.406       .  A
C422       Br427   1.917       .  S
C423        C872   1.403       .  A
C424        C871   1.403   1_545  A
C424       Br425   1.932       .  S
C429        C430   1.407       .  A
C429        C434   1.409       .  A
C429       Br436   1.936       .  S
C430        C431   1.419       .  A
C431        C432   1.412       .  A
C431       Br438   1.931       .  S
C432        C433   1.410       .  A
C432       Br437   1.932       .  S
C433        C434   1.418       .  A
C434       Br435   1.917       .  S
C439        C440   1.409       .  A
C439        C444   1.411       .  A
C439       Br446   1.936       .  S
C440        C441   1.412       .  A
C441        C442   1.411       .  A
C441       Br448   1.933       .  S
C442        C443   1.419       .  A
C442       Br447   1.935       .  S
C443        C444   1.424       .  A
C444       Br445   1.935       .  S
O449       Ni455   1.934       .  S
O449        C470   1.273   1_655  A
O450       Ni473   1.925       .  S
O451        H474   0.967       .  S
O451       Ni467   1.900   1_655  S
C452        O461   1.273       .  A
C452        C868   1.441       .  S
O453       Ni472   1.919       .  S
O453        C459   1.269   1_455  A
O454       Ni472   1.909       .  S
O454        C456   1.270       .  A
Ni455       O458   1.913   1_565  S
Ni455       O460   1.921       .  S
C456        O466   1.272       .  A
C456        C891   1.501       .  S
O458        C463   1.275       .  A
C459        C838   1.489       .  S
O460        C462   1.273       .  A
O461       Ni472   1.901       .  S
C462        O468   1.270       .  A
C462        C878   1.488       .  S
C463        C861   1.460       .  S
H464        O465   0.966       .  S
O465       Ni473   1.896   1_455  S
O466       Ni467   1.931       .  S
Ni467       O471   1.922       .  S
O468       Ni473   1.920       .  S
C470        C851   1.487       .  S
O475       Ni481   1.919       .  S
O475        C496   1.266   1_565  A
O476       Ni499   1.906       .  S
O476        C485   1.265       .  A
O477       Ni481   1.894   1_545  S
O477       Ni499   1.904   1_545  S
O477       Ni493   1.890   1_545  S
C478        O495   1.270       .  A
C478        O487   1.275       .  A
C478        C858   1.458       .  S
O479       Ni498   1.931       .  S
O480       Ni498   1.917       .  S
O480        C482   1.268       .  A
Ni481       O484   1.932       .  S
Ni481       O486   1.888       .  S
C482        O492   1.271       .  A
C482        C828   1.514       .  S
O483       Ni499   1.877       .  S
O483        C489   1.265       .  A
O484        C489   1.277       .  A
C485        C798   1.474       .  S
O486        C488   1.259       .  A
C488        O494   1.276       .  A
C488        C818   1.481       .  S
C489        C871   1.447       .  S
H490        O491   0.970       .  S
O491       Ni499   1.891       .  S
O491       Ni493   1.904       .  S
Ni493       O495   1.895       .  S
O494       Ni499   1.947       .  S
C496        C811   1.501       .  S
O501       Ni507   1.913       .  S
O501        C522   1.263       .  A
O502       Ni525   1.899       .  S
O502        C511   1.267       .  A
O503        H526   0.966       .  S
O503       Ni507   1.897       .  S
O503       Ni525   1.891       .  S
O503       Ni519   1.891       .  S
C504        O521   1.265       .  A
C504        O513   1.271       .  A
C504        C778   1.440       .  S
O505       Ni524   1.919       .  S
O505        C511   1.268       .  A
O506       Ni524   1.895       .  S
O506        C508   1.265       .  A
Ni507       O510   1.907       .  S
Ni507       O512   1.900       .  S
C508        O518   1.275       .  A
C508        C821   1.478       .  S
O509       Ni525   1.903       .  S
O509        C515   1.276       .  A
O510        C515   1.275       .  A
C511        C761   1.466       .  S
O512        C514   1.265       .  A
O513       Ni524   1.915       .  S
C514        O520   1.271       .  A
C514        C888   1.484       .  S
C515        C788   1.454       .  S
H516        O517   0.966       .  S
O517       Ni525   1.904       .  S
O517       Ni519   1.914       .  S
O517       Ni524   1.905       .  S
O518       Ni519   1.939       .  S
Ni519       O523   1.915       .  S
Ni519       O521   1.879       .  S
O520       Ni525   1.932       .  S
C522        O523   1.267       .  A
C522        C771   1.479       .  S
O527       Ni533   1.923       .  S
O527        C548   1.267       .  A
O528       Ni551   1.918       .  S
O528        C537   1.269       .  A
O529        H552   0.967       .  S
O529       Ni533   1.896       .  S
O529       Ni551   1.905       .  S
O529       Ni545   1.887       .  S
C530        O547   1.272       .  A
C530        O539   1.276       .  A
C530        C791   1.451       .  S
O531       Ni550   1.933       .  S
O531        C537   1.271       .  A
O532       Ni550   1.916       .  S
O532        C534   1.269       .  A
Ni533       O536   1.923       .  S
Ni533       O538   1.903       .  S
C534        O544   1.273       .  A
C534        C881   1.493       .  S
O535       Ni551   1.884       .  S
O535        C541   1.274       .  A
O536        C541   1.278       .  A
C537        C738   1.497       .  S
O538        C540   1.262       .  A
O539       Ni550   1.916       .  S
C540        O546   1.276       .  A
C540        C831   1.504       .  S
C541        C781   1.441       .  S
H542        O543   0.967       .  S
O543       Ni551   1.902       .  S
O543       Ni545   1.907       .  S
O543       Ni550   1.912       .  S
O544       Ni545   1.933       .  S
Ni545       O549   1.919       .  S
Ni545       O547   1.885       .  S
O546       Ni551   1.953       .  S
C548        O549   1.268       .  A
C548        C748   1.487       .  S
O553       Ni559   1.926       .  S
O554       Ni577   1.933       .  S
O554        C563   1.276   1_655  A
O555        H578   0.966   1_655  S
O555       Ni559   1.906       .  S
O555       Ni577   1.903   1_556  S
C556        O573   1.282   1_554  A
C556        O565   1.278       .  A
C556        C728   1.492   1_554  S
O557       Ni576   1.931       .  S
O558       Ni576   1.915       .  S
O558        C560   1.271       .  A
Ni559       O562   1.919       .  S
Ni559       O564   1.921       .  S
C560        O570   1.279   1_554  A
C560        C708   1.497       .  S
O561       Ni577   1.943       .  S
O561        C567   1.288   1_554  A
O562        C567   1.277       .  A
C563        C848   1.502       .  S
O565       Ni576   1.928       .  S
C566        C698   1.513       .  S
C567        C718   1.492       .  S
H568        O569   0.967   1_655  S
O569       Ni571   1.907   1_554  S
O569       Ni576   1.909       .  S
O570       Ni571   1.948       .  S
Ni571       O575   1.930       .  S
Ni571       O573   1.930       .  S
O572       Ni577   1.948       .  S
C574        O575   1.274   1_655  A
C574        C841   1.492       .  S
O579       Ni585   1.931       .  S
O579        C600   1.271   1_565  A
O580       Ni603   1.899   1_565  S
O581        H604   0.966       .  S
C582        O599   1.280       .  A
C582        O591   1.275   1_554  A
C582        C711   1.495       .  S
O583       Ni602   1.934       .  S
O583        C589   1.274       .  A
O584       Ni602   1.922       .  S
O584        C586   1.273       .  A
Ni585       O588   1.925   1_565  S
Ni585       O590   1.914       .  S
C586        O596   1.272   1_556  A
C586        C678   1.498       .  S
O588        C593   1.273       .  A
O590        C592   1.271       .  A
C592        O598   1.272   1_554  A
C592        C688   1.486       .  S
C593        C701   1.507   1_554  S
H594        O595   0.966       .  S
O595       Ni603   1.926   1_565  S
O595       Ni597   1.902   1_566  S
Ni597       O599   1.940   1_545  S
O598       Ni603   1.928   1_565  S
C600        C808   1.475       .  S
O605       Ni611   1.928       .  S
O605        C626   1.271       .  A
O606       Ni629   1.896       .  S
O606        C615   1.266       .  A
O607        H630   0.966       .  S
O607       Ni611   1.908       .  S
O607       Ni629   1.894   1_554  S
O607       Ni623   1.921       .  S
C608        O625   1.277   1_556  A
C608        O617   1.275       .  A
C608        C671   1.502   1_556  S
O609       Ni628   1.928       .  S
O609        C615   1.271       .  A
O610       Ni628   1.907       .  S
O610        C612   1.268       .  A
Ni611       O614   1.922       .  S
Ni611       O616   1.913       .  S
C612        O622   1.275   1_556  A
C612        C731   1.490       .  S
O613       Ni629   1.954       .  S
O613        C619   1.285       .  A
O614        C619   1.278   1_554  A
C615        C758   1.468       .  S
O616        C618   1.269       .  A
O617       Ni628   1.935       .  S
C618        O624   1.274   1_554  A
C618        C681   1.500       .  S
C619        C658   1.503       .  S
H620        O621   0.966       .  S
O621       Ni629   1.943       .  S
O621       Ni623   1.916   1_556  S
O621       Ni628   1.921       .  S
O622       Ni623   1.934       .  S
Ni623       O627   1.899       .  S
Ni623       O625   1.937       .  S
O624       Ni629   1.934       .  S
C626        O627   1.266       .  A
C626        C768   1.477       .  S
O631       Ni637   1.930       .  S
O631        C652   1.273       .  A
O632       Ni655   1.912       .  S
O632        C641   1.270       .  A
O633        H656   0.966       .  S
O633       Ni637   1.917       .  S
O633       Ni655   1.905   1_556  S
O633       Ni649   1.937       .  S
C634        O651   1.287   1_554  A
C634        O643   1.275       .  A
C634        C721   1.491       .  S
O635       Ni654   1.916       .  S
O635        C641   1.270       .  A
O636       Ni654   1.932       .  S
O636        C638   1.274       .  A
Ni637       O640   1.932       .  S
Ni637       O642   1.920       .  S
C638        O648   1.275   1_554  A
C638        C668   1.508       .  S
O639       Ni655   1.921       .  S
O639        C645   1.277   1_554  A
O640        C645   1.275       .  A
C641        C751   1.496       .  S
O642        C644   1.274       .  A
O643       Ni654   1.915       .  S
C644        O650   1.281   1_556  A
C644        C661   1.509       .  S
C645        C691   1.493   1_556  S
H646        O647   0.966       .  S
O647       Ni655   1.928       .  S
O647       Ni649   1.893   1_554  S
O647       Ni654   1.911       .  S
O648       Ni649   1.941       .  S
Ni649       O653   1.908       .  S
Ni649       O651   1.941       .  S
O650       Ni655   1.956       .  S
C652        O653   1.270       .  A
C652        C741   1.496       .  S
C657        C658   1.412   1_554  A
C657        C662   1.413       .  A
C657       Br664   1.935       .  S
C658        C659   1.418       .  A
C659        C660   1.423       .  A
C659       Br666   1.931       .  S
C660        C661   1.419       .  A
C660       Br665   1.931       .  S
C661        C662   1.420   1_556  A
C662       Br663   1.932       .  S
C667        C668   1.413       .  A
C667        C672   1.422   1_655  A
C667       Br674   1.928       .  S
C668        C669   1.421   1_554  A
C669        C670   1.413       .  A
C669       Br676   1.924       .  S
C670        C671   1.407   1_656  A
C670       Br675   1.934   1_655  S
C671        C672   1.419       .  A
C672       Br673   1.927       .  S
C677        C678   1.422       .  A
C677        C682   1.416       .  A
C677       Br684   1.932       .  S
C678        C679   1.411   1_556  A
C679        C680   1.412       .  A
C679       Br686   1.935       .  S
C680        C681   1.422       .  A
C680       Br685   1.935       .  S
C681        C682   1.412   1_554  A
C682       Br683   1.933       .  S
C687        C688   1.408   1_556  A
C687        C692   1.412       .  A
C687       Br694   1.932       .  S
C688        C689   1.416       .  A
C689        C690   1.410       .  A
C689       Br696   1.931       .  S
C690        C691   1.411       .  A
C690       Br695   1.934       .  S
C691        C692   1.422   1_554  A
C692       Br693   1.933       .  S
C697        C698   1.417       .  A
C697        C702   1.422       .  A
C697       Br704   1.930       .  S
C699        C700   1.415       .  A
C699       Br706   1.925       .  S
C700       Br705   1.938       .  S
C701        C702   1.419   1_545  A
C702       Br703   1.930       .  S
C707        C708   1.416   1_556  A
C707        C712   1.410       .  A
C707       Br714   1.928       .  S
C709        C710   1.419       .  A
C709       Br716   1.929       .  S
C710       Br715   1.929       .  S
C711        C712   1.410   1_554  A
C712       Br713   1.934       .  S
C717        C718   1.405   1_554  A
C717        C722   1.410       .  A
C717       Br724   1.932       .  S
C718        C719   1.424       .  A
C719        C720   1.412       .  A
C719       Br726   1.932       .  S
C720        C721   1.407   1_556  A
C720       Br725   1.933       .  S
C721        C722   1.423       .  A
C722       Br723   1.932       .  S
C727        C728   1.421   1_554  A
C727        C732   1.412       .  A
C727       Br734   1.933       .  S
C728        C729   1.408       .  A
C729        C730   1.410       .  A
C729       Br736   1.933   1_455  S
C730        C731   1.421       .  A
C730       Br735   1.934       .  S
C731        C732   1.410   1_556  A
C732       Br733   1.934       .  S
C737        C738   1.416       .  A
C737        C742   1.409       .  A
C737       Br744   1.936       .  S
C738        C739   1.416       .  A
C739        C740   1.414       .  A
C739       Br746   1.931       .  S
C740        C741   1.417       .  A
C740       Br745   1.934       .  S
C741        C742   1.417       .  A
C742       Br743   1.936       .  S
C747        C748   1.414       .  A
C747        C752   1.407       .  A
C747       Br754   1.939       .  S
C748        C749   1.410       .  A
C749        C750   1.411       .  A
C749       Br756   1.928       .  S
C750        C751   1.419       .  A
C750       Br755   1.934       .  S
C751        C752   1.419       .  A
C752       Br753   1.935       .  S
C757        C758   1.409       .  A
C757        C762   1.404       .  A
C757       Br764   1.929       .  S
C758        C759   1.410       .  A
C759        C760   1.404       .  A
C759       Br766   1.933       .  S
C760        C761   1.410       .  A
C760       Br765   1.933       .  S
C761        C762   1.407       .  A
C762       Br763   1.931       .  S
C767        C768   1.409       .  A
C767        C772   1.402       .  A
C767       Br774   1.930       .  S
C768        C769   1.413       .  A
C769        C770   1.406       .  A
C769       Br776   1.933       .  S
C770        C771   1.412       .  A
C770       Br775   1.929       .  S
C771        C772   1.416       .  A
C772       Br773   1.938       .  S
C777        C778   1.408       .  A
C777        C782   1.396       .  A
C777       Br784   1.930       .  S
C778        C779   1.401       .  A
C779        C780   1.393       .  A
C779       Br786   1.933       .  S
C780        C781   1.406       .  A
C780       Br785   1.925       .  S
C781        C782   1.403       .  A
C782       Br783   1.933       .  S
C787        C788   1.412       .  A
C787        C792   1.393   1_455  A
C787       Br794   1.930       .  S
C788        C789   1.405       .  A
C789        C790   1.401   1_455  A
C789       Br796   1.931       .  S
C790        C791   1.412       .  A
C790       Br795   1.930       .  S
C791        C792   1.402       .  A
C792       Br793   1.936       .  S
C797        C802   1.407       .  A
C797       Br804   1.931       .  S
C798        C799   1.406       .  A
C799        C800   1.409       .  A
C799       Br806   1.931       .  S
C800        C801   1.418       .  A
C800       Br805   1.930       .  S
C802       Br803   1.932       .  S
C807        C808   1.409       .  A
C807        C812   1.412       .  A
C807       Br814   1.935       .  S
C808        C809   1.402   1_545  A
C809        C810   1.402   1_565  A
C809       Br816   1.935       .  S
C810        C811   1.428       .  A
C810       Br815   1.942   1_545  S
C811        C812   1.425       .  A
C812       Br813   1.936       .  S
C817        C818   1.422       .  A
C817        C822   1.407       .  A
C817       Br824   1.939       .  S
C818        C819   1.406       .  A
C819        C820   1.405       .  A
C819       Br826   1.934       .  S
C820        C821   1.418       .  A
C820       Br825   1.935       .  S
C821        C822   1.408       .  A
C822       Br823   1.935       .  S
C827        C828   1.425       .  A
C827        C832   1.417       .  A
C827       Br834   1.937       .  S
C828        C829   1.420       .  A
C829        C830   1.412       .  A
C829       Br836   1.943       .  S
C830        C831   1.424       .  A
C830       Br835   1.940       .  S
C831        C832   1.413       .  A
C832       Br833   1.932       .  S
C837        C842   1.416       .  A
C837       Br844   1.932       .  S
C838        C839   1.411       .  A
C839        C840   1.411       .  A
C839       Br846   1.932       .  S
C840       Br845   1.931       .  S
C841        C842   1.412       .  A
C842       Br843   1.926       .  S
C847        C848   1.415       .  A
C847        C852   1.413   1_455  A
C847       Br854   1.926   1_455  S
C849        C850   1.415       .  A
C849       Br856   1.932       .  S
C850        C851   1.407       .  A
C850       Br855   1.930       .  S
C852       Br853   1.930       .  S
C857        C862   1.391       .  A
C857       Br864   1.925       .  S
C858        C859   1.408       .  A
C859        C860   1.405       .  A
C859       Br866   1.933       .  S
C860        C861   1.415   1_565  A
C860       Br865   1.932       .  S
C862       Br863   1.938       .  S
C867        C868   1.409       .  A
C867        C872   1.396       .  A
C867       Br874   1.929       .  S
C869        C870   1.392       .  A
C869       Br876   1.934       .  S
C870        C871   1.406       .  A
C870       Br875   1.917       .  S
C872       Br873   1.932       .  S
C877        C878   1.407       .  A
C877        C882   1.409       .  A
C877       Br884   1.936       .  S
C878        C879   1.419       .  A
C879        C880   1.412       .  A
C879       Br886   1.931       .  S
C880        C881   1.410       .  A
C880       Br885   1.932       .  S
C881        C882   1.418       .  A
C882       Br883   1.917       .  S
C887        C888   1.409       .  A
C887        C892   1.411       .  A
C887       Br894   1.936       .  S
C888        C889   1.412       .  A
C889        C890   1.411       .  A
C889       Br896   1.933       .  S
C890        C891   1.419       .  A
C890       Br895   1.935       .  S
C891        C892   1.424       .  A
C892       Br893   1.935       .  S
