geometry optimzed in LAMMPS
_audit_creation_date              2020-11-30 
_audit_creation_method            'lammps2cif' 
_symmetry_space_group_name_H-M    'P1' 
_symmetry_Int_Tables_number       1 
_symmetry_cell_setting            triclinic 
loop_ 
_symmetry_equiv_pos_as_xyz 
  x,y,z 
_cell_length_a                    48.54707412 
_cell_length_b                    47.71640536371063 
_cell_length_c                    45.538543763409166 
_cell_angle_alpha                 89.87720121502245 
_cell_angle_beta                  90.59052468652712 
_cell_angle_gamma                 89.48698751302624 
loop_ 
_atom_site_label 
_atom_site_type_symbol 
_atom_site_fract_x 
_atom_site_fract_y 
_atom_site_fract_z 
_atom_site_charge 
N1          N  0.95745321  0.99119122  0.24334160    -0.36400
N2          N  0.99968022  0.03396227  0.24330303    -0.57000
N3          N  0.04139702  0.99031729  0.24166079    -0.36400
N4          N  0.99908132  0.94783923  0.24465971    -0.57000
C5          C  0.94208353  0.01412184  0.24947523     0.27200
C6          C  0.94180257  0.96852324  0.24875514     0.27200
C7          C  0.05688203  0.01316203  0.24696834     0.27200
C8          C  0.05647564  0.96769536  0.25009640     0.27200
C9          C  0.97719112  0.05022186  0.23845258     0.35800
C10         C  0.02162614  0.04962648  0.23604524     0.35800
C11         C  0.97695887  0.93186185  0.23872896     0.35800
C12         C  0.02136181  0.93146317  0.24007646     0.35800
C13         C  0.91627303  0.00595155  0.25890032    -0.21700
C14         C  0.91608057  0.97709578  0.25837630    -0.21700
C15         C  0.08215898  0.00503393  0.25875360    -0.21700
C16         C  0.08186403  0.97625934  0.26084501    -0.21700
C17         C  0.98487026  0.07648129  0.22856330    -0.22700
C18         C  0.01305925  0.07603749  0.22682143    -0.22700
C19         C  0.98518065  0.90514564  0.23047451    -0.22700
C20         C  0.01342193  0.90489139  0.23134060    -0.22700
C21         C  0.94988590  0.04206202  0.24396734    -0.18100
C22         C  0.94950401  0.94053343  0.24284319    -0.18100
C23         C  0.04859198  0.93953227  0.24630608    -0.18100
C24         C  0.04931509  0.04093242  0.23964356    -0.18100
H25         H  0.89913313  0.01939459  0.26479324     0.14800
H26         H  0.89882523  0.96394690  0.26389525     0.14800
H27         H  0.09908197  0.01844685  0.26502741     0.14800
H28         H  0.09858240  0.96311619  0.26893444     0.14800
H29         H  0.97155682  0.09408999  0.22309895     0.13100
H30         H  0.02575662  0.09328288  0.21981537     0.13100
H31         H  0.97220573  0.88755651  0.22494778     0.13100
H32         H  0.02659357  0.88708623  0.22657593     0.13100
H33         H  0.97602439  0.99109479  0.23224915     0.26400
H34         H  0.02308265  0.99004480  0.22962809     0.26400
O35         O  0.21410203  0.28086896  0.27385877    -0.80700
O36         O  0.24262593  0.19232601  0.17428707    -0.65400
O37         O  0.23762628  0.23853693  0.24119932    -1.12000
C38         C  0.30313455  0.29231637  0.19409711     1.06200
O39         O  0.28815481  0.19419227  0.16983229    -0.78600
O40         O  0.30703223  0.21855515  0.22044924    -0.66200
Ni41       Ni  0.20108163  0.24824750  0.25337308     1.34900
C42         C  0.30528202  0.23346960  0.24343991     0.84900
O43         O  0.21690270  0.18687821  0.22456995    -0.79100
O44         O  0.18316469  0.21577865  0.23682954    -0.89400
C45         C  0.26486587  0.18384658  0.16303501     0.84500
O46         O  0.19509166  0.26807813  0.21746367    -0.67600
O47         O  0.31353665  0.26803275  0.18995111    -0.86900
C48         C  0.19569248  0.25603449  0.19250099     0.85300
C49         C  0.19178554  0.19147934  0.22995252     1.06900
H50         H  0.25369085  0.25073657  0.17379835     0.38700
O51         O  0.26214892  0.24274029  0.19123024    -1.09500
O52         O  0.29039738  0.25551257  0.24432091    -0.66200
Ni53       Ni  0.25817311  0.26802299  0.22275808     1.26300
O54         O  0.20876804  0.23306284  0.18805106    -0.66400
O55         O  0.27877066  0.29592566  0.20327504    -0.78700
C56         C  0.23542656  0.29612226  0.27331848     0.84700
O57         O  0.25387677  0.29345104  0.25410668    -0.65900
Ni58       Ni  0.29877303  0.23145587  0.18160929     1.27400
Ni59       Ni  0.23963272  0.21486293  0.20785526     1.26100
H60         H  0.24763546  0.23015661  0.25748163     0.39300
O61         O  0.70200854  0.20493281  0.24762163    -0.80700
O62         O  0.80349000  0.24354372  0.17107503    -0.65400
O63         O  0.75207357  0.23151623  0.23247424    -1.12000
C64         C  0.70377489  0.30814966  0.19326557     1.06200
O65         O  0.80043688  0.28998917  0.16858434    -0.78600
O66         O  0.77555581  0.30667171  0.21959540    -0.66200
Ni67       Ni  0.73899016  0.19393997  0.23778530     1.34900
C68         C  0.76119301  0.30343716  0.24251769     0.84900
O69         O  0.80393105  0.21112988  0.21834097    -0.79100
O70         O  0.77464124  0.17746821  0.23058876    -0.89400
C71         C  0.81209885  0.26689444  0.16180690     0.84500
O72         O  0.72764331  0.18904575  0.19788833    -0.67600
O73         O  0.72778022  0.31749744  0.18821002    -0.86900
C74         C  0.74284220  0.19194013  0.17564856     0.85300
C75         C  0.79899183  0.18625121  0.22658317     1.06900
H76         H  0.74347565  0.25616992  0.16830287     0.38700
O77         O  0.75141168  0.26309391  0.18641110    -1.09500
O78         O  0.74058121  0.28693446  0.24299392    -0.66200
Ni79       Ni  0.72575215  0.25777593  0.21746124     1.26300
O80         O  0.76387933  0.20778631  0.17584298    -0.66400
O81         O  0.69964901  0.28307837  0.20104296    -0.78700
C82         C  0.69091297  0.22773823  0.25582572     0.84700
O83         O  0.70049580  0.25130412  0.24844022    -0.65900
Ni84       Ni  0.76353082  0.30095961  0.17997027     1.27400
Ni85       Ni  0.77800928  0.23692174  0.20169611     1.26100
H86         H  0.75985306  0.23802223  0.25077784     0.39300
O87         O  0.79487843  0.70300765  0.16365533    -0.80700
O88         O  0.69933239  0.74126323  0.24338352    -0.65400
O89         O  0.74419329  0.72779228  0.17710563    -1.12000
C90         C  0.79430553  0.80438060  0.21774828     1.06200
O91         O  0.69694941  0.78599438  0.23128114    -0.78600
O92         O  0.72952860  0.81207161  0.19223259    -0.66200
Ni93       Ni  0.75751712  0.69103192  0.16846804     1.34900
C94         C  0.73739746  0.80492258  0.16684492     0.84900
O95         O  0.69596641  0.70457933  0.19959493    -0.79100
O96         O  0.72136180  0.67534517  0.17219417    -0.89400
C97         C  0.68755423  0.76499446  0.24505198     0.84500
O98         O  0.76691181  0.67959411  0.20735270    -0.67600
O99         O  0.77214858  0.81053074  0.23128604    -0.86900
C100        C  0.75801281  0.68642889  0.23241799     0.85300
C101        C  0.69900710  0.68198039  0.18505722     1.06900
H102        H  0.75858406  0.75418838  0.23762887     0.38700
O103        O  0.74800911  0.76068042  0.22081855    -1.09500
O104        O  0.75162458  0.78281812  0.16241720    -0.66200
Ni105      Ni  0.77045862  0.75586826  0.18747689     1.26300
O106        O  0.74081164  0.70641715  0.23603178    -0.66400
O107        O  0.79623916  0.78403204  0.19960804    -0.78700
C108        C  0.80341868  0.72448129  0.15016043     0.84700
O109        O  0.79259061  0.74836488  0.15431721    -0.65900
Ni110      Ni  0.73502817  0.79704030  0.23069131     1.27400
Ni111      Ni  0.72171343  0.73291728  0.21062928     1.26100
H112        H  0.73372851  0.73405188  0.16012067     0.39300
O113        O  0.27458260  0.79250689  0.17062640    -0.80700
O114        O  0.25219519  0.68030181  0.24155751    -0.65400
O115        O  0.25348232  0.73959296  0.18619829    -1.12000
C116        C  0.18214428  0.77919298  0.23988448     1.06200
O117        O  0.20742477  0.68076055  0.25200393    -0.78600
O118        O  0.18546329  0.70902322  0.20491863    -0.66200
Ni119      Ni  0.28874425  0.75505707  0.17671543     1.34900
C120        C  0.18555742  0.72619516  0.18356685     0.84900
O121        O  0.27748469  0.68706077  0.19138531    -0.79100
O122        O  0.30799194  0.71958703  0.17962961    -0.89400
C123        C  0.23122238  0.66939247  0.25306927     0.84500
O124        O  0.29718167  0.76366704  0.21651164    -0.67600
O125        O  0.17420225  0.75386644  0.24122471    -0.86900
C126        C  0.29770752  0.74659247  0.23792635     0.85300
C127        C  0.30099895  0.69409239  0.18222813     1.06900
H128        H  0.23763373  0.73899089  0.25411246     0.38700
O129        O  0.22901044  0.73296242  0.23600905    -1.09500
O130        O  0.19862030  0.74927198  0.18487351    -0.66200
Ni131      Ni  0.22930946  0.76278073  0.20850323     1.26300
O132        O  0.28412199  0.72376666  0.23750053    -0.66400
O133        O  0.20609075  0.78552480  0.23168459    -0.78700
C134        C  0.25081350  0.80389389  0.17032414     0.84700
O135        O  0.23005898  0.79231502  0.18124638    -0.65900
Ni136      Ni  0.19329826  0.71810566  0.24488604     1.27400
Ni137      Ni  0.25345967  0.70977462  0.21399327     1.26100
H138        H  0.24468660  0.73347241  0.16822487     0.39300
N139        N  0.23072248  0.94838282  0.97381691    -0.36400
N140        N  0.22025027  0.99950991  0.00397991    -0.57000
N141        N  0.23086086  0.03199943  0.95174600    -0.36400
N142        N  0.24106070  0.98001138  0.92113421    -0.57000
C143        C  0.23341546  0.94017724  0.00207747     0.27200
C144        C  0.24486944  0.92968959  0.95753809     0.27200
C145        C  0.23616906  0.05101141  0.97295336     0.27200
C146        C  0.24366231  0.04084431  0.92731278     0.27200
C147        C  0.21236238  0.98166854  0.02513135     0.35800
C148        C  0.21458407  0.02542229  0.01379492     0.35800
C149        C  0.24018108  0.95391446  0.90993247     0.35800
C150        C  0.23920352  0.99770789  0.89808324     0.35800
C151        C  0.24937130  0.91593622  0.00378483    -0.21700
C152        C  0.25671437  0.90936750  0.97556715    -0.21700
C153        C  0.25197624  0.07250068  0.96165150    -0.21700
C154        C  0.25642156  0.06623332  0.93263513    -0.21700
C155        C  0.20044244  0.99616105  0.04813016    -0.22700
C156        C  0.20202235  0.02407539  0.04098854    -0.22700
C157        C  0.23718580  0.95502188  0.87962689    -0.22700
C158        C  0.23675026  0.98291631  0.87208362    -0.22700
C159        C  0.22101997  0.95359575  0.02615586    -0.18100
C160        C  0.24542198  0.92954476  0.92666442    -0.18100
C161        C  0.24364429  0.02664346  0.90027236    -0.18100
C162        C  0.22692467  0.04941993  0.00211982    -0.18100
H163        H  0.25514708  0.90420972  0.02330481     0.14800
H164        H  0.26909667  0.89151457  0.96902051     0.14800
H165        H  0.25961391  0.09075336  0.97308648     0.14800
H166        H  0.26825298  0.07860004  0.91740592     0.14800
H167        H  0.19347629  0.98768729  0.06880595     0.13100
H168        H  0.19658383  0.04145235  0.05510038     0.13100
H169        H  0.23636604  0.93761029  0.86446854     0.13100
H170        H  0.23575096  0.99134246  0.85000797     0.13100
H171        H  0.21745654  0.96394800  0.96577496     0.26400
H172        H  0.21773358  0.01490661  0.95313402     0.26400
N173        N  0.97878476  0.27838700  0.96251096    -0.36400
N174        N  0.02413852  0.27390236  0.92100131    -0.57000
N175        N  0.06317748  0.27715928  0.96931352    -0.36400
N176        N  0.01776301  0.27829294  0.01077805    -0.57000
C177        C  0.96532768  0.27151939  0.93743602     0.27200
C178        C  0.96203682  0.27199852  0.98516299     0.27200
C179        C  0.08022824  0.26934891  0.94743049     0.27200
C180        C  0.07686314  0.27281068  0.99491368     0.27200
C181        C  0.00317592  0.27922770  0.90198794     0.35800
C182        C  0.04765131  0.27685848  0.90566956     0.35800
C183        C  0.99437456  0.28351647  0.02572062     0.35800
C184        C  0.03882176  0.28463394  0.02909779     0.35800
C185        C  0.93968911  0.26078983  0.94417241    -0.21700
C186        C  0.93766715  0.26096531  0.97428761    -0.21700
C187        C  0.10516524  0.26018737  0.95926049    -0.21700
C188        C  0.10305365  0.26240005  0.98927346    -0.21700
C189        C  0.01343543  0.28553889  0.87446305    -0.22700
C190        C  0.04161947  0.28382169  0.87675284    -0.22700
C191        C  0.00059978  0.29331137  0.05361758    -0.22700
C192        C  0.02880461  0.29400116  0.05576875    -0.22700
C193        C  0.97496099  0.27618810  0.90860680    -0.18100
C194        C  0.96763430  0.27735886  0.01522331    -0.18100
C195        C  0.06686230  0.27952954  0.02307337    -0.18100
C196        C  0.07444162  0.27197308  0.91707856    -0.18100
H197        H  0.92400828  0.25364688  0.92894197     0.14800
H198        H  0.92011386  0.25400595  0.98671764     0.14800
H199        H  0.12312565  0.25296244  0.94748598     0.14800
H200        H  0.11907394  0.25717472  0.00511661     0.14800
H201        H  0.00185108  0.29048449  0.85466755     0.13100
H202        H  0.05602176  0.28729216  0.85915292     0.13100
H203        H  0.98633083  0.29902465  0.07074675     0.13100
H204        H  0.04060231  0.30020457  0.07494097     0.13100
H205        H  0.99694961  0.28972516  0.96374955     0.26400
H206        H  0.04453178  0.28780217  0.96691272     0.26400
N207        N  0.72103867  0.04572052  0.95677271    -0.36400
N208        N  0.72305830  0.00408032  0.91025288    -0.57000
N209        N  0.72040433  0.96030696  0.95412560    -0.36400
N210        N  0.71543028  0.00188441  0.00075324    -0.57000
C211        C  0.71685111  0.06204581  0.93272972     0.27200
C212        C  0.71325109  0.06080633  0.98048578     0.27200
C213        C  0.71620085  0.94534647  0.92929525     0.27200
C214        C  0.71240148  0.94419294  0.97689425     0.27200
C215        C  0.72972265  0.02715125  0.89470588     0.35800
C216        C  0.72965748  0.98177359  0.89338457     0.35800
C217        C  0.72056077  0.02399254  0.01851823     0.35800
C218        C  0.72014680  0.97849691  0.01699452     0.35800
C219        C  0.70614112  0.08776678  0.94121560    -0.21700
C220        C  0.70374945  0.08694737  0.97133946    -0.21700
C221        C  0.70514712  0.91952459  0.93636001    -0.21700
C222        C  0.70282153  0.91876558  0.96645164    -0.21700
C223        C  0.74044385  0.01949265  0.86775920    -0.22700
C224        C  0.74049917  0.99071436  0.86696818    -0.22700
C225        C  0.72839069  0.01453537  0.04622800    -0.22700
C226        C  0.72796334  0.98572298  0.04529450    -0.22700
C227        C  0.72437132  0.05498617  0.90368438    -0.18100
C228        C  0.71711639  0.05251334  0.01021303    -0.18100
C229        C  0.71630533  0.95077221  0.00686132    -0.18100
C230        C  0.72416194  0.95359073  0.90078406    -0.18100
H231        H  0.70099345  0.10543901  0.92719972     0.14800
H232        H  0.69645675  0.10391585  0.98503435     0.14800
H233        H  0.69984981  0.90274604  0.92143476     0.14800
H234        H  0.69549548  0.90125758  0.97925043     0.14800
H235        H  0.74726925  0.03320680  0.85037839     0.13100
H236        H  0.74739799  0.97787420  0.84886748     0.13100
H237        H  0.73393589  0.02701559  0.06515737     0.13100
H238        H  0.73295916  0.97170105  0.06332911     0.13100
H239        H  0.73196088  0.02688516  0.95734784     0.26400
H240        H  0.73157821  0.97872654  0.95582175     0.26400
N241        N  0.05004652  0.69389839  0.95659278    -0.36400
N242        N  0.00729309  0.69753909  0.91120473    -0.57000
N243        N  0.96603948  0.70424391  0.95484864    -0.36400
N244        N  0.00863032  0.70286329  0.00043343    -0.57000
C245        C  0.06521991  0.69722830  0.93217375     0.27200
C246        C  0.06597454  0.70139618  0.97979617     0.27200
C247        C  0.95194767  0.71307724  0.93071141     0.27200
C248        C  0.95232659  0.71376600  0.97844347     0.27200
C249        C  0.02845890  0.68748895  0.89539092     0.35800
C250        C  0.98456052  0.69495266  0.89415596     0.35800
C251        C  0.03048836  0.69671555  0.01793648     0.35800
C252        C  0.98604233  0.69960907  0.01704191     0.35800
C253        C  0.09129768  0.70653443  0.93993176    -0.21700
C254        C  0.09177589  0.70913325  0.97006803    -0.21700
C255        C  0.92900058  0.72847022  0.93910073    -0.21700
C256        C  0.92914669  0.72876832  0.96932558    -0.21700
C257        C  0.01909283  0.67805438  0.86830369    -0.22700
C258        C  0.99119345  0.68292186  0.86747851    -0.22700
C259        C  0.02183869  0.68963466  0.04583552    -0.22700
C260        C  0.99357416  0.69106539  0.04516768    -0.22700
C261        C  0.05634383  0.69086958  0.90330990    -0.18100
C262        C  0.05811355  0.69981730  0.00951521    -0.18100
C263        C  0.95913714  0.70716803  0.00785703    -0.18100
C264        C  0.95854468  0.70592394  0.90153433    -0.18100
H265        H  0.10825156  0.71090755  0.92542083     0.14800
H266        H  0.10916209  0.71579215  0.98329877     0.14800
H267        H  0.91353106  0.73807591  0.92496073     0.14800
H268        H  0.91380841  0.73865260  0.98304284     0.14800
H269        H  0.03128471  0.66963637  0.85055885     0.13100
H270        H  0.97749067  0.67872740  0.84914241     0.13100
H271        H  0.03456146  0.68419397  0.06469085     0.13100
H272        H  0.98019499  0.68700060  0.06352136     0.13100
H273        H  0.03089473  0.68434252  0.95747046     0.26400
H274        H  0.98209719  0.68965002  0.95549430     0.26400
O275        O  0.29543969  0.77195339  0.77462689    -0.80700
O276        O  0.26847953  0.72425504  0.64872611    -0.65400
O277        O  0.27265334  0.76829174  0.71746739    -1.12000
C278        C  0.19871068  0.71434488  0.74938344     1.06200
O279        O  0.22307835  0.72155607  0.64558718    -0.78600
O280        O  0.20104496  0.75868486  0.68399450    -0.66200
Ni281      Ni  0.30867152  0.77278060  0.73489422     1.34900
C282        C  0.20245743  0.77644738  0.70465361     0.84900
O283        O  0.29515407  0.76992281  0.66253126    -0.79100
O284        O  0.32688647  0.77611574  0.69740787    -0.89400
C285        C  0.24688993  0.71732369  0.63506866     0.84500
O286        O  0.31670698  0.73366470  0.73720887    -0.67600
O287        O  0.19150523  0.71525507  0.72242423    -0.86900
C288        C  0.31553122  0.71621175  0.71628913     0.85300
C289        C  0.31885380  0.77755894  0.67070728     1.06900
H290        H  0.25312580  0.70558599  0.70739948     0.38700
O291        O  0.24539634  0.72396151  0.70343227    -1.09500
O292        O  0.21746850  0.77212810  0.72745477    -0.66200
Ni293      Ni  0.24701065  0.74589343  0.73825838     1.26300
O294        O  0.30079575  0.72064462  0.69335356    -0.66400
O295        O  0.22202382  0.72263486  0.75839435    -0.78700
C296        C  0.27168889  0.77534964  0.78562573     0.84700
O297        O  0.24994183  0.76785471  0.77245680    -0.65900
Ni298      Ni  0.20969474  0.71960971  0.68530124     1.27400
Ni299      Ni  0.27089973  0.74640299  0.68273726     1.26100
H300        H  0.26495798  0.78666204  0.71347215     0.39300
N301        N  0.97671162  0.99562652  0.68726324    -0.36400
N302        N  0.01879815  0.03745771  0.69279442    -0.57000
N303        N  0.06139355  0.99291151  0.69047913    -0.36400
N304        N  0.01891098  0.95089478  0.68871191    -0.57000
C305        C  0.96105263  0.01836188  0.69407900     0.27200
C306        C  0.96103475  0.97267692  0.69125809     0.27200
C307        C  0.07664552  0.01546360  0.69791153     0.27200
C308        C  0.07665624  0.96967866  0.69688582     0.27200
C309        C  0.99682572  0.05459164  0.68786282     0.35800
C310        C  0.04146590  0.05310012  0.68848166     0.35800
C311        C  0.99651160  0.93555382  0.68162922     0.35800
C312        C  0.04120016  0.93403900  0.68491722     0.35800
C313        C  0.93512530  0.00971808  0.70248284    -0.21700
C314        C  0.93509519  0.98091984  0.70070132    -0.21700
C315        C  0.10201803  0.00652384  0.70883177    -0.21700
C316        C  0.10199414  0.97766852  0.70827482    -0.21700
C317        C  0.00555731  0.08124088  0.68062301    -0.22700
C318        C  0.03383304  0.08029166  0.68092932    -0.22700
C319        C  0.00461195  0.90879405  0.67333461    -0.22700
C320        C  0.03289444  0.90782453  0.67547739    -0.22700
C321        C  0.96900611  0.04673302  0.69105504    -0.18100
C322        C  0.96880637  0.94467978  0.68465558    -0.18100
C323        C  0.06876861  0.94153070  0.69162935    -0.18100
C324        C  0.06890450  0.04389081  0.69356243    -0.18100
H325        H  0.91790234  0.02282015  0.70889003     0.14800
H326        H  0.91779588  0.96757414  0.70551647     0.14800
H327        H  0.11885389  0.01946461  0.71637793     0.14800
H328        H  0.11880585  0.96413720  0.71535853     0.14800
H329        H  0.99289160  0.09946198  0.67568177     0.13100
H330        H  0.04725450  0.09774425  0.67644549     0.13100
H331        H  0.99149038  0.89161397  0.66685445     0.13100
H332        H  0.04584573  0.88981952  0.67085738     0.13100
H333        H  0.99573651  0.99578970  0.67704332     0.26400
H334        H  0.04287240  0.99359834  0.67886867     0.26400
O335        O  0.31004278  0.19200898  0.76237376    -0.80700
O336        O  0.27228219  0.30122752  0.69224969    -0.65400
O337        O  0.28330373  0.24293281  0.74770247    -1.12000
C338        C  0.20849584  0.19892185  0.70240581     1.06200
O339        O  0.22686346  0.29853267  0.68594365    -0.78600
O340        O  0.21039358  0.26901705  0.73432555    -0.66200
Ni341      Ni  0.32071949  0.23013210  0.75377321     1.34900
C342        C  0.21357860  0.25234285  0.75596862     0.84900
O343        O  0.30237311  0.29674515  0.73993160    -0.79100
O344        O  0.33693091  0.26681998  0.74775521    -0.89400
C345        C  0.24965059  0.31113308  0.68283561     0.84500
O346        O  0.32561249  0.22092800  0.71344184    -0.67600
O347        O  0.19952940  0.22384972  0.69879842    -0.86900
C348        C  0.32236734  0.23778059  0.69199713     0.85300
C349        C  0.32756169  0.29177292  0.74535782     1.06900
H350        H  0.26053739  0.24123707  0.68197972     0.38700
O351        O  0.25316722  0.24726577  0.70057652    -1.09500
O352        O  0.22931935  0.23077854  0.75474610    -0.66200
Ni353      Ni  0.25821381  0.21798845  0.72857307     1.26300
O354        O  0.30716051  0.25967287  0.69383018    -0.66400
O355        O  0.23332992  0.19346453  0.70923413    -0.78700
C356        C  0.28740539  0.17893067  0.76455030     0.84700
O357        O  0.26452701  0.18889823  0.75586452    -0.65900
Ni358      Ni  0.21598736  0.26040348  0.69392832     1.27400
Ni359      Ni  0.27809461  0.27223694  0.71988501     1.26100
H360        H  0.27611027  0.24889827  0.76640657     0.39300
O361        O  0.81206229  0.29370829  0.74704107    -0.80700
O362        O  0.71335372  0.25651828  0.66587703    -0.65400
O363        O  0.76175342  0.26768997  0.73084127    -1.12000
C364        C  0.81265677  0.19091902  0.69224030     1.06200
O365        O  0.71530873  0.21006128  0.66553406    -0.78600
O366        O  0.74241578  0.18852490  0.71367782    -0.66200
Ni367      Ni  0.77419603  0.30504811  0.73903220     1.34900
C368        C  0.75375251  0.19344376  0.73841453     0.84900
O369        O  0.71044206  0.28863020  0.71304939    -0.79100
O370        O  0.73759408  0.32095559  0.73347573    -0.89400
C371        C  0.70428325  0.23314912  0.65726681     0.84500
O372        O  0.78386126  0.31503345  0.69973940    -0.67600
O373        O  0.78950394  0.18341355  0.68151516    -0.86900
C374        C  0.77053573  0.31072699  0.67605045     0.85300
C375        C  0.71402623  0.31270351  0.72439690     1.06900
H376        H  0.77375106  0.24429005  0.66792251     0.38700
O377        O  0.76471208  0.23664080  0.68491796    -1.09500
O378        O  0.77189097  0.21232390  0.74202416    -0.66200
Ni379      Ni  0.78872907  0.24101814  0.71817820     1.26300
O380        O  0.75210251  0.29200901  0.67400507    -0.66400
O381        O  0.81586031  0.21449678  0.70480868    -0.78700
C382        C  0.82205539  0.27097805  0.75755542     0.84700
O383        O  0.81171201  0.24742846  0.75137433    -0.65900
Ni384      Ni  0.75308519  0.19929085  0.67502824     1.27400
Ni385      Ni  0.73725077  0.26273253  0.69839543     1.26100
H386        H  0.75287811  0.26083167  0.74830677     0.39300
O387        O  0.70395705  0.80513232  0.66167346    -0.80700
O388        O  0.80420795  0.76111413  0.73878571    -0.65400
O389        O  0.75397650  0.77705662  0.67629408    -1.12000
C390        C  0.70281129  0.70266262  0.71876275     1.06200
O391        O  0.80209643  0.71536831  0.73289108    -0.78600
O392        O  0.76803017  0.69336361  0.69166812    -0.66200
Ni393      Ni  0.74176836  0.81515535  0.67097470     1.34900
C394        C  0.75820448  0.70072021  0.66684298     0.84900
O395        O  0.80608397  0.79454798  0.69229839    -0.79100
O396        O  0.77861024  0.82984568  0.67754017    -0.89400
C397        C  0.81353395  0.73680148  0.74403528     0.84500
O398        O  0.73196191  0.82165926  0.71108125    -0.67600
O399        O  0.72552654  0.69484518  0.73061827    -0.86900
C400        C  0.74704307  0.81695329  0.73351949     0.85300
C401        C  0.80248360  0.81958180  0.68338000     1.06900
H402        H  0.74350078  0.75247887  0.73862130     0.38700
O403        O  0.75194787  0.74472716  0.72127364    -1.09500
O404        O  0.74296064  0.72241435  0.66352909    -0.66200
Ni405      Ni  0.72720827  0.75071366  0.68898584     1.26300
O406        O  0.76654607  0.79898874  0.73357395    -0.66400
O407        O  0.70055984  0.72441830  0.70258123    -0.78700
C408        C  0.69409360  0.78295617  0.65023542     0.84700
O409        O  0.70351248  0.75885903  0.65674165    -0.65900
Ni410      Ni  0.76317301  0.70709042  0.73072556     1.27400
Ni411      Ni  0.77940970  0.76979075  0.70753259     1.26100
H412        H  0.76207752  0.77083968  0.65812343     0.39300
N413        N  0.46362193  0.50471085  0.72541584    -0.36400
N414        N  0.50821542  0.46269342  0.72935931    -0.57000
N415        N  0.54860752  0.50659538  0.72228686    -0.36400
N416        N  0.50416364  0.54874371  0.72238182    -0.57000
C417        C  0.44940177  0.48200404  0.73431739     0.27200
C418        C  0.44729261  0.52752545  0.72968314     0.27200
C419        C  0.56565346  0.48454149  0.72781822     0.27200
C420        C  0.56348444  0.53022899  0.72580545     0.27200
C421        C  0.48631772  0.44536185  0.72907910     0.35800
C422        C  0.53089439  0.44629890  0.72608666     0.35800
C423        C  0.48122855  0.56431748  0.71700539     0.35800
C424        C  0.52583023  0.56539942  0.71661687     0.35800
C425        C  0.42359333  0.49044123  0.74388735    -0.21700
C426        C  0.42230519  0.51911808  0.74106616    -0.21700
C427        C  0.59187244  0.49427478  0.73418565    -0.21700
C428        C  0.59047057  0.52307775  0.73309040    -0.21700
C429        C  0.49519428  0.41781223  0.72603466    -0.22700
C430        C  0.52338077  0.41841034  0.72418733    -0.22700
C431        C  0.48843021  0.59090178  0.70760498    -0.22700
C432        C  0.51665187  0.59166399  0.70763792    -0.22700
C433        C  0.45851591  0.45372858  0.73307530    -0.18100
C434        C  0.45397752  0.55564289  0.72275837    -0.18100
C435        C  0.55379389  0.55801784  0.72122942    -0.18100
C436        C  0.55843393  0.45585598  0.72651678    -0.18100
H437        H  0.40735126  0.47729814  0.75217702     0.14800
H438        H  0.40491129  0.53226506  0.74682048     0.14800
H439        H  0.61013000  0.48193392  0.73925004     0.14800
H440        H  0.60748993  0.53713840  0.73698015     0.14800
H441        H  0.48270052  0.39914660  0.72543538     0.13100
H442        H  0.53681825  0.40032433  0.72202585     0.13100
H443        H  0.47481420  0.60814609  0.70174686     0.13100
H444        H  0.52901291  0.60957677  0.70184690     0.13100
H445        H  0.48218475  0.50429418  0.71432120     0.26400
H446        H  0.52873502  0.50553010  0.71385511     0.26400
N447        N  0.45237523  0.49394500  0.17170359    -0.36400
N448        N  0.49215051  0.44926763  0.18489305    -0.57000
N449        N  0.53536458  0.49060914  0.18791767    -0.36400
N450        N  0.49585064  0.53529262  0.17814568    -0.57000
C451        C  0.43520372  0.47240607  0.17697995     0.27200
C452        C  0.43711689  0.51774831  0.17285609     0.27200
C453        C  0.54928266  0.46744178  0.19683685     0.27200
C454        C  0.55120557  0.51292744  0.19451730     0.27200
C455        C  0.46993487  0.43361033  0.17838417     0.35800
C456        C  0.51410095  0.43171776  0.18440927     0.35800
C457        C  0.47508824  0.55247759  0.16945727     0.35800
C458        C  0.51907137  0.55065384  0.17740914     0.35800
C459        C  0.40858444  0.48256336  0.18054080    -0.21700
C460        C  0.40978202  0.51116084  0.17789542    -0.21700
C461        C  0.57424964  0.47506257  0.20938166    -0.21700
C462        C  0.57547176  0.50379986  0.20792116    -0.21700
C463        C  0.47767570  0.40586161  0.17433283    -0.22700
C464        C  0.50578131  0.40469995  0.17791647    -0.22700
C465        C  0.48505430  0.57901334  0.16360487    -0.22700
C466        C  0.51295650  0.57785124  0.16860031    -0.22700
C467        C  0.44259016  0.44373200  0.17774205    -0.18100
C468        C  0.44697681  0.54529291  0.16918710    -0.18100
C469        C  0.54544402  0.54095122  0.18628622    -0.18100
C470        C  0.54134981  0.43958798  0.19111119    -0.18100
H471        H  0.39016493  0.47064064  0.18472681     0.14800
H472        H  0.39246527  0.52547116  0.17975017     0.14800
H473        H  0.59023861  0.46128522  0.21798670     0.14800
H474        H  0.59263306  0.51641936  0.21519640     0.14800
H475        H  0.46444970  0.38834374  0.16925173     0.13100
H476        H  0.51855613  0.38606880  0.17632093     0.13100
H477        H  0.47336214  0.59739039  0.15686517     0.13100
H478        H  0.52702690  0.59518811  0.16650313     0.13100
H479        H  0.47275226  0.49232991  0.16525953     0.26400
H480        H  0.51820718  0.49078564  0.17417117     0.26400
N481        N  0.78313626  0.54495673  0.45296678    -0.36400
N482        N  0.78357010  0.49927564  0.40983616    -0.57000
N483        N  0.78645668  0.45832677  0.45739495    -0.36400
N484        N  0.78214260  0.50407425  0.50045443    -0.57000
C485        C  0.77885260  0.55969857  0.42788000     0.27200
C486        C  0.77739159  0.56224503  0.47574174     0.27200
C487        C  0.78137850  0.44111566  0.43427406     0.27200
C488        C  0.78163288  0.44359187  0.48227648     0.27200
C489        C  0.78693165  0.52125757  0.39141759     0.35800
C490        C  0.78745149  0.47578721  0.39370456     0.35800
C491        C  0.78354641  0.52775496  0.51677756     0.35800
C492        C  0.78603036  0.48229223  0.51919269     0.35800
C493        C  0.77079023  0.58684839  0.43482197    -0.21700
C494        C  0.76987085  0.58844197  0.46494628    -0.21700
C495        C  0.77371932  0.41502215  0.44468472    -0.21700
C496        C  0.77395806  0.41655021  0.47486171    -0.21700
C497        C  0.79286671  0.51166637  0.36344983    -0.22700
C498        C  0.79321770  0.48291426  0.36490178    -0.22700
C499        C  0.78805170  0.52094238  0.54603143    -0.22700
C500        C  0.78974863  0.49223368  0.54754781    -0.22700
C501        C  0.78303619  0.54983419  0.39888381    -0.18100
C502        C  0.77958987  0.55544479  0.50603452    -0.18100
C503        C  0.78442114  0.45350556  0.51157712    -0.18100
C504        C  0.78403632  0.44798785  0.40403324    -0.18100
H505        H  0.76611128  0.60384898  0.41975189     0.14800
H506        H  0.76433743  0.60687329  0.47745992     0.14800
H507        H  0.76835902  0.39674220  0.43188814     0.14800
H508        H  0.76876178  0.39966968  0.48966228     0.14800
H509        H  0.79629711  0.52408938  0.34393333     0.13100
H510        H  0.79702621  0.46885629  0.34673879     0.13100
H511        H  0.78979950  0.53517079  0.56442308     0.13100
H512        H  0.79301018  0.48007173  0.56738524     0.13100
H513        H  0.79195958  0.52515195  0.45439855     0.26400
H514        H  0.79509210  0.47810788  0.45643416     0.26400
N515        N  0.53279921  0.79544176  0.44200245    -0.36400
N516        N  0.48601693  0.78849728  0.40211771    -0.57000
N517        N  0.44826009  0.79668852  0.45020402    -0.36400
N518        N  0.49529531  0.80061719  0.49018887    -0.57000
C519        C  0.54548596  0.78659453  0.41744531     0.27200
C520        C  0.55030090  0.79051897  0.46481347     0.27200
C521        C  0.43084406  0.78632894  0.42961630     0.27200
C522        C  0.43575136  0.79431745  0.47644095     0.27200
C523        C  0.50621639  0.79195732  0.38231249     0.35800
C524        C  0.46199658  0.79003498  0.38693735     0.35800
C525        C  0.51918158  0.80573480  0.50452041     0.35800
C526        C  0.47501953  0.80863359  0.50840297     0.35800
C527        C  0.57157887  0.77639570  0.42460436    -0.21700
C528        C  0.57457129  0.77878564  0.45456460    -0.21700
C529        C  0.40669641  0.77786599  0.44284842    -0.21700
C530        C  0.40978203  0.78294079  0.47245040    -0.21700
C531        C  0.49497634  0.79588104  0.35447116    -0.22700
C532        C  0.46692770  0.79439341  0.35737315    -0.22700
C533        C  0.51412258  0.81721086  0.53186495    -0.22700
C534        C  0.48606847  0.81918324  0.53428939    -0.22700
C535        C  0.53459735  0.78876965  0.38862189    -0.18100
C536        C  0.54530536  0.79753829  0.49439680    -0.18100
C537        C  0.44692541  0.80291172  0.50371270    -0.18100
C538        C  0.43580722  0.78547534  0.39910505    -0.18100
H539        H  0.58686722  0.76802722  0.40978940     0.14800
H540        H  0.59262861  0.77276507  0.46729634     0.14800
H541        H  0.38871303  0.76899955  0.43228270     0.14800
H542        H  0.39464773  0.77867592  0.48912872     0.14800
H543        H  0.50585699  0.79877780  0.33408053     0.13100
H544        H  0.45188719  0.79610404  0.33973206     0.13100
H545        H  0.52907460  0.82296790  0.54853484     0.13100
H546        H  0.47503845  0.82658430  0.55334233     0.13100
H547        H  0.51448100  0.80685820  0.44254245     0.26400
H548        H  0.46652628  0.80720879  0.44636037     0.26400
N549        N  0.28129947  0.45331152  0.48128264    -0.36400
N550        N  0.28530081  0.48328841  0.42660459    -0.57000
N551        N  0.27532609  0.53544380  0.45572573    -0.36400
N552        N  0.27130009  0.50617301  0.51095465    -0.57000
C553        C  0.27667233  0.43253617  0.46171341     0.27200
C554        C  0.27100439  0.44480064  0.50721912     0.27200
C555        C  0.26888568  0.54234394  0.42770802     0.27200
C556        C  0.26359847  0.55506245  0.47293897     0.27200
C557        C  0.29250000  0.45751814  0.41742129     0.35800
C558        C  0.28890615  0.50067705  0.40369206     0.35800
C559        C  0.27534407  0.48933941  0.53444741     0.35800
C560        C  0.27309008  0.53271025  0.52088147     0.35800
C561        C  0.26383723  0.41034730  0.47553933    -0.21700
C562        C  0.26038969  0.41804251  0.50436839    -0.21700
C563        C  0.25304613  0.56670304  0.42714675    -0.21700
C564        C  0.24975434  0.57477668  0.45578830    -0.21700
C565        C  0.30170554  0.45869987  0.38867310    -0.22700
C566        C  0.29947473  0.48619798  0.37998230    -0.22700
C567        C  0.27987629  0.50515710  0.55947726    -0.22700
C568        C  0.27865812  0.53277717  0.55080788    -0.22700
C569        C  0.28416300  0.43299711  0.43184466    -0.18100
C570        C  0.27227400  0.46007505  0.53368728    -0.18100
C571        C  0.26664773  0.55647396  0.50362153    -0.18100
C572        C  0.27808270  0.52798168  0.40262037    -0.18100
H573        H  0.25768097  0.39062929  0.46589863     0.14800
H574        H  0.25096029  0.40546640  0.52126351     0.14800
H575        H  0.24485330  0.57765708  0.40809170     0.14800
H576        H  0.23849921  0.59309454  0.46315716     0.14800
H577        H  0.30738722  0.44132151  0.37469904     0.13100
H578        H  0.30328438  0.49423528  0.35816727     0.13100
H579        H  0.28313198  0.49758889  0.58167671     0.13100
H580        H  0.28074206  0.55079462  0.56502701     0.13100
H581        H  0.29286535  0.47128245  0.47789121     0.26400
H582        H  0.28941596  0.52015875  0.46263254     0.26400
N583        N  0.45062660  0.21075724  0.46304211    -0.36400
N584        N  0.49505410  0.21712015  0.50621340    -0.57000
N585        N  0.53469342  0.21858991  0.45950604    -0.36400
N586        N  0.49049161  0.21473056  0.41624067    -0.57000
C587        C  0.43608788  0.21673533  0.48744771     0.27200
C588        C  0.43376822  0.21554312  0.43966940     0.27200
C589        C  0.55030967  0.22730755  0.48247411     0.27200
C590        C  0.54778603  0.22621026  0.43469907     0.27200
C591        C  0.47400632  0.21126650  0.52433853     0.35800
C592        C  0.51840901  0.21509773  0.52257437     0.35800
C593        C  0.46797266  0.20767609  0.40032467     0.35800
C594        C  0.51232682  0.21130161  0.39841956     0.35800
C595        C  0.40954718  0.22494431  0.47952876    -0.21700
C596        C  0.40807037  0.22415195  0.44935468    -0.21700
C597        C  0.57353117  0.24068090  0.47216163    -0.21700
C598        C  0.57190327  0.24006741  0.44199690    -0.21700
C599        C  0.48401131  0.20553522  0.55235917    -0.22700
C600        C  0.51217349  0.20782858  0.55120909    -0.22700
C601        C  0.47547650  0.19983668  0.37222356    -0.22700
C602        C  0.50363404  0.20180188  0.37111639    -0.22700
C603        C  0.44580921  0.21388765  0.51668491    -0.18100
C604        C  0.44062722  0.21099466  0.40996682    -0.18100
C605        C  0.53957630  0.21904062  0.40577267    -0.18100
C606        C  0.54495254  0.22194095  0.51242394    -0.18100
H607        H  0.39292718  0.23084349  0.49398776     0.14800
H608        H  0.39007645  0.22924647  0.43609702     0.14800
H609        H  0.59006699  0.24970213  0.48504622     0.14800
H610        H  0.58698285  0.24850915  0.42712150     0.14800
H611        H  0.47219299  0.20072610  0.57172789     0.13100
H612        H  0.52634255  0.20505491  0.56950670     0.13100
H613        H  0.46205502  0.19372176  0.35427363     0.13100
H614        H  0.51614308  0.19732843  0.35213721     0.13100
H615        H  0.47001181  0.20134799  0.46253445     0.26400
H616        H  0.51798377  0.20515423  0.46064624     0.26400
C617        C  0.60935185  0.81190006  0.54022860    -0.27400
C618        C  0.60837951  0.79012168  0.56099377     0.02200
C619        C  0.58696040  0.77044660  0.55929260     0.30300
C620        C  0.56685131  0.77285165  0.53716056    -0.19200
C621        C  0.56789388  0.79457829  0.51642188    -0.28600
C622        C  0.58929136  0.81417643  0.51800861     0.44300
C623        C  0.62982822  0.78813064  0.58430606     0.05500
O624        O  0.58481154  0.74968878  0.58003798    -0.57100
H625        H  0.55015090  0.75794266  0.53637018     0.18500
O626        O  0.59059468  0.83570592  0.49809403    -0.63800
H627        H  0.62575399  0.82712705  0.54125463     0.16900
C628        C  0.64651003  0.76401435  0.58714689     0.29200
C629        C  0.66662611  0.76244068  0.60925673    -0.24700
C630        C  0.67112788  0.78501004  0.62850059    -0.24000
C631        C  0.65456967  0.80936179  0.62540515     0.40600
C632        C  0.63403269  0.81068267  0.60353077    -0.26500
O633        O  0.64379426  0.74209381  0.56793142    -0.58300
H634        H  0.67933060  0.74369268  0.61071546     0.16200
O635        O  0.65780278  0.83171554  0.64396967    -0.59800
H636        H  0.62130910  0.82938291  0.60157150     0.14700
H637        H  0.57853657  0.85068207  0.50607782     0.46500
H638        H  0.65565000  0.74688395  0.55107310     0.41900
H639        H  0.66926562  0.84523496  0.63305184     0.45400
H640        H  0.58889408  0.73193581  0.56959035     0.36900
C641        C  0.78833220  0.64337621  0.61772357    -0.27400
C642        C  0.77008967  0.64388474  0.59359375     0.02200
C643        C  0.74911489  0.66455155  0.59276167     0.30300
C644        C  0.74613814  0.68354043  0.61610777    -0.19200
C645        C  0.76378813  0.68241082  0.64085059    -0.28600
C646        C  0.78531280  0.66221203  0.64116310     0.44300
C647        C  0.77248462  0.62208515  0.57014758     0.05500
O648        O  0.73113478  0.66618206  0.56937792    -0.57100
H649        H  0.72939678  0.69869499  0.61516460     0.18500
O650        O  0.80374555  0.66077422  0.66416593    -0.63800
H651        H  0.80460586  0.62771481  0.61885997     0.16900
C652        C  0.79767140  0.61682021  0.55581923     0.29200
C653        C  0.79968537  0.59534520  0.53484833    -0.24700
C654        C  0.77687484  0.57867137  0.52787945    -0.24000
C655        C  0.75170520  0.58393680  0.54200117     0.40600
C656        C  0.74959085  0.60554713  0.56277700    -0.26500
O657        O  0.82047581  0.63252137  0.56219100    -0.58300
H658        H  0.81917547  0.59152537  0.52412648     0.16200
O659        O  0.72901945  0.56811165  0.53548705    -0.59800
H660        H  0.73012288  0.60897678  0.57367427     0.14700
H661        H  0.79779832  0.64462403  0.67621933     0.46500
H662        H  0.81977699  0.64835530  0.54805773     0.41900
H663        H  0.72898848  0.55304018  0.55051658     0.45400
H664        H  0.74113952  0.67653331  0.55394725     0.36900
C665        C  0.65619213  0.64330706  0.74327361    -0.27400
C666        C  0.63334856  0.64728734  0.72468740     0.02200
C667        C  0.63211435  0.67101687  0.70635270     0.30300
C668        C  0.65425418  0.68967840  0.70574986    -0.19200
C669        C  0.67810020  0.68482422  0.72298638    -0.28600
C670        C  0.67852598  0.66162204  0.74243743     0.44300
C671        C  0.61199280  0.62538975  0.72330357     0.05500
O672        O  0.60925289  0.67617257  0.68913330    -0.57100
H673        H  0.65305695  0.70743822  0.69091893     0.18500
O674        O  0.70071304  0.65638409  0.76059109    -0.63800
H675        H  0.65722026  0.62521380  0.75768701     0.16900
C676        C  0.60818053  0.60949435  0.69755210     0.29200
C677        C  0.58922135  0.58757413  0.69707335    -0.24700
C678        C  0.57407930  0.58109248  0.72216641    -0.24000
C679        C  0.57795171  0.59681660  0.74796509     0.40600
C680        C  0.59686177  0.61880055  0.74844453    -0.26500
O681        O  0.62334094  0.61485229  0.67295563    -0.58300
H682        H  0.58640494  0.57548653  0.67717203     0.16200
O683        O  0.56327000  0.59083915  0.77273738    -0.59800
H684        H  0.59986601  0.63063721  0.76848536     0.14700
H685        H  0.71135851  0.64129056  0.75079512     0.46500
H686        H  0.64048367  0.60360133  0.67545175     0.41900
H687        H  0.57424257  0.57623418  0.78321102     0.45400
H688        H  0.61499814  0.67204263  0.66874817     0.36900
C689        C  0.80409382  0.39305972  0.56283676    -0.27400
C690        C  0.78057422  0.39107468  0.58047822     0.02200
C691        C  0.75886272  0.41057657  0.57612452     0.30300
C692        C  0.76051957  0.43092720  0.55391897    -0.19200
C693        C  0.78370002  0.43240480  0.53587188    -0.28600
C694        C  0.80577817  0.41355582  0.54076991     0.44300
C695        C  0.77905599  0.36896632  0.60365279     0.05500
O696        O  0.73653537  0.41068377  0.59437962    -0.57100
H697        H  0.74360736  0.44562596  0.55071672     0.18500
O698        O  0.82897650  0.41486069  0.52390738    -0.63800
H699        H  0.82110897  0.37848597  0.56601976     0.16900
C700        C  0.75659491  0.35050373  0.60494201     0.29200
C701        C  0.75471219  0.33109280  0.62796059    -0.24700
C702        C  0.77511898  0.32931785  0.65012871    -0.24000
C703        C  0.79820056  0.34704242  0.64811136     0.40600
C704        C  0.80009930  0.36642981  0.62493688    -0.26500
O705        O  0.73619078  0.35135348  0.58389450    -0.58300
H706        H  0.73671866  0.31786410  0.62879270     0.16200
O707        O  0.81912448  0.34555289  0.66853404    -0.59800
H708        H  0.81775945  0.38011827  0.62407882     0.14700
H709        H  0.84023746  0.42994059  0.53278441     0.46500
H710        H  0.74265289  0.33870520  0.56809993     0.41900
H711        H  0.81557096  0.36122134  0.68230271     0.45400
H712        H  0.72050051  0.40576736  0.58179644     0.36900
C713        C  0.61216567  0.20772554  0.55379898    -0.27400
C714        C  0.61172349  0.22860916  0.57548460     0.02200
C715        C  0.58939806  0.24769836  0.57604629     0.30300
C716        C  0.56783630  0.24545744  0.55543600    -0.19200
C717        C  0.56814324  0.22429647  0.53404581    -0.28600
C718        C  0.59069466  0.20556077  0.53314527     0.44300
C719        C  0.63464749  0.23013857  0.59735118     0.05500
O720        O  0.58833413  0.26841079  0.59684584    -0.57100
H721        H  0.55073892  0.26017853  0.55620178     0.18500
O722        O  0.59152031  0.18459910  0.51259393    -0.63800
H723        H  0.62932380  0.19309843  0.55278484     0.16900
C724        C  0.64166895  0.20688271  0.61509356     0.29200
C725        C  0.66401640  0.20828236  0.63479061    -0.24700
C726        C  0.67987799  0.23269449  0.63717482    -0.24000
C727        C  0.67259639  0.25611624  0.61951878     0.40600
C728        C  0.65013873  0.25470860  0.59996795    -0.26500
O729        O  0.62622958  0.18296160  0.61395623    -0.58300
H730        H  0.66891024  0.19013362  0.64825849     0.16200
O731        O  0.68758713  0.28033451  0.62064572    -0.59800
H732        H  0.64518111  0.27270050  0.58628408     0.14700
H733        H  0.60412681  0.19138967  0.49718008     0.46500
H734        H  0.63743952  0.16927702  0.60275487     0.41900
H735        H  0.70260677  0.27762579  0.60629615     0.45400
H736        H  0.57734065  0.26050626  0.61306847     0.36900
C737        C  0.64290629  0.34677904  0.71355862    -0.27400
C738        C  0.64671083  0.37298603  0.72681126     0.02200
C739        C  0.67227174  0.37890063  0.74012695     0.30300
C740        C  0.69360119  0.35888888  0.73988236    -0.19200
C741        C  0.69010316  0.33261214  0.72629938    -0.28600
C742        C  0.66417057  0.32665233  0.71331694     0.44300
C743        C  0.62398515  0.39409802  0.72653200     0.05500
O744        O  0.67681279  0.40445960  0.75293847    -0.57100
H745        H  0.71313921  0.36426703  0.74998534     0.18500
O746        O  0.65950660  0.30161717  0.69947434    -0.63800
H747        H  0.62328910  0.34187469  0.70333033     0.16900
C748        C  0.61329771  0.40491822  0.69988919     0.29200
C749        C  0.59213819  0.42515671  0.70014298    -0.24700
C750        C  0.58107518  0.43453535  0.72674960    -0.24000
C751        C  0.59149278  0.42350860  0.75334955     0.40600
C752        C  0.61295424  0.40363691  0.75314138    -0.26500
O753        O  0.62414700  0.39661022  0.67357850    -0.58300
H754        H  0.58430336  0.43355899  0.67954144     0.16200
O755        O  0.58107787  0.43238565  0.77964425    -0.59800
H756        H  0.62087791  0.39545158  0.77380014     0.14700
H757        H  0.65106385  0.28946691  0.71454656     0.46500
H758        H  0.61118656  0.38244037  0.66577322     0.41900
H759        H  0.56557305  0.41961408  0.78374761     0.45400
H760        H  0.68333576  0.41667696  0.73684075     0.36900
C761        C  0.40531321  0.24348632  0.58021653    -0.27400
C762        C  0.38891094  0.22064776  0.58819966     0.02200
C763        C  0.39044007  0.19572358  0.57164403     0.30300
C764        C  0.40877613  0.19374749  0.54806583    -0.19200
C765        C  0.42564965  0.21638214  0.54083309    -0.28600
C766        C  0.42342226  0.24152505  0.55665639     0.44300
C767        C  0.37042213  0.22347923  0.61384806     0.05500
O768        O  0.37330046  0.17375327  0.57760734    -0.57100
H769        H  0.40995622  0.17451914  0.53551093     0.18500
O770        O  0.43913564  0.26420567  0.54938515    -0.63800
H771        H  0.40428117  0.26285964  0.59254105     0.16900
C772        C  0.37213352  0.20479026  0.63779692     0.29200
C773        C  0.35577217  0.20917302  0.66257328    -0.24700
C774        C  0.33780692  0.23245213  0.66437246    -0.24000
C775        C  0.33611245  0.25107425  0.64017606     0.40600
C776        C  0.35228507  0.24646315  0.61534995    -0.26500
O777        O  0.39048599  0.18276694  0.63774931    -0.58300
H778        H  0.35781022  0.19463954  0.68078666     0.16200
O779        O  0.31951528  0.27447254  0.64080874    -0.59800
H780        H  0.35091849  0.26120600  0.59724611     0.14700
H781        H  0.42896581  0.27361859  0.53307913     0.46500
H782        H  0.40823873  0.19075318  0.64450619     0.41900
H783        H  0.30186194  0.26863820  0.63164807     0.45400
H784        H  0.38550857  0.15824095  0.58446199     0.36900
C785        C  0.27295983  0.38132658  0.65363031    -0.27400
C786        C  0.25428667  0.38556392  0.63033388     0.02200
C787        C  0.23261139  0.36653669  0.62607017     0.30300
C788        C  0.23050167  0.34307315  0.64436071    -0.19200
C789        C  0.24999699  0.33804954  0.66677842    -0.28600
C790        C  0.27093260  0.35785810  0.67183222     0.44300
C791        C  0.25977899  0.40764082  0.60843798     0.05500
O792        O  0.21498980  0.36929540  0.60246594    -0.57100
H793        H  0.21446225  0.32797454  0.63989771     0.18500
O794        O  0.29002278  0.35410069  0.69392708    -0.63800
H795        H  0.28973019  0.39583110  0.65710188     0.16900
C796        C  0.23974558  0.42793508  0.60061460     0.29200
C797        C  0.24449738  0.44612419  0.57707683    -0.24700
C798        C  0.26921203  0.44438698  0.56146397    -0.24000
C799        C  0.28985290  0.42534258  0.57047560     0.40600
C800        C  0.28505788  0.40710087  0.59378131    -0.26500
O801        O  0.21522299  0.42955381  0.61521796    -0.58300
H802        H  0.22852932  0.46082858  0.57025711     0.16200
O803        O  0.31418809  0.42341507  0.55555084    -0.59800
H804        H  0.30068001  0.39165017  0.59962205     0.14700
H805        H  0.28198323  0.36353863  0.71126441     0.46500
H806        H  0.21892871  0.44168194  0.63243955     0.41900
H807        H  0.32589995  0.43844052  0.56382739     0.45400
H808        H  0.19697616  0.37480478  0.61087002     0.36900
C809        C  0.39254813  0.33602435  0.74389583    -0.27400
C810        C  0.38144534  0.36313674  0.74605193     0.02200
C811        C  0.35289850  0.36670444  0.74929292     0.30300
C812        C  0.33578193  0.34327170  0.75012193    -0.19200
C813        C  0.34665734  0.31594013  0.74730551    -0.28600
C814        C  0.37544311  0.31253876  0.74415517     0.44300
C815        C  0.39985203  0.38751686  0.74379941     0.05500
O816        O  0.34149048  0.39303027  0.75118278    -0.57100
H817        H  0.31383200  0.34658288  0.75258586     0.18500
O818        O  0.38708604  0.28651379  0.74040634    -0.63800
H819        H  0.41453247  0.33312135  0.74111016     0.16900
C820        C  0.41871870  0.39372562  0.76645544     0.29200
C821        C  0.43739582  0.41566069  0.76301357    -0.24700
C822        C  0.43764014  0.43142228  0.73696532    -0.24000
C823        C  0.41832262  0.42562088  0.71457915     0.40600
C824        C  0.39947774  0.40384635  0.71814950    -0.26500
O825        O  0.41868451  0.37874142  0.79218581    -0.58300
H826        H  0.45194978  0.42021415  0.78051985     0.16200
O827        O  0.41791509  0.44101657  0.68910500    -0.59800
H828        H  0.38498964  0.39923102  0.70059333     0.14700
H829        H  0.38739064  0.28359258  0.71884808     0.46500
H830        H  0.43295563  0.36396222  0.78971936     0.41900
H831        H  0.42831161  0.42958318  0.67474402     0.45400
H832        H  0.34326483  0.39827150  0.77217351     0.36900
C833        C  0.91926363  0.88575550  0.70154592    -0.27400
C834        C  0.90058347  0.88788091  0.67785471     0.02200
C835        C  0.90535585  0.90774101  0.65556536     0.30300
C836        C  0.92808245  0.92553800  0.65758011    -0.19200
C837        C  0.94636923  0.92379033  0.68161002    -0.28600
C838        C  0.94193216  0.90361399  0.70358640     0.44300
C839        C  0.87554037  0.87025141  0.67744735     0.05500
O840        O  0.88771037  0.91020200  0.63196350    -0.57100
H841        H  0.93122898  0.94111394  0.64062203     0.18500
O842        O  0.95924035  0.90172941  0.72751041    -0.63800
H843        H  0.91573333  0.87084225  0.71904702     0.16900
C844        C  0.87750037  0.84089446  0.67949876     0.29200
C845        C  0.85358055  0.82479218  0.68078418    -0.24700
C846        C  0.82726667  0.83746281  0.68031856    -0.24000
C847        C  0.82538135  0.86695510  0.67787283     0.40600
C848        C  0.84937662  0.88300735  0.67633632    -0.26500
O849        O  0.90273825  0.82771541  0.67944055    -0.58300
H850        H  0.85575761  0.80221807  0.68229537     0.16200
O851        O  0.80030518  0.88043107  0.67738437    -0.59800
H852        H  0.84754429  0.90562649  0.67504417     0.14700
H853        H  0.95137932  0.91479929  0.74217947     0.46500
H854        H  0.90594630  0.82136653  0.69995562     0.41900
H855        H  0.79696993  0.88606710  0.69799821     0.45400
H856        H  0.89318014  0.89497154  0.61837351     0.36900
C857        C  0.90835273  0.09302830  0.66690668    -0.27400
C858        C  0.90560758  0.11166415  0.69066111     0.02200
C859        C  0.92415638  0.10884933  0.71466436     0.30300
C860        C  0.94469997  0.08777802  0.71457068    -0.19200
C861        C  0.94715856  0.06916739  0.69085269    -0.28600
C862        C  0.92884491  0.07207953  0.66686682     0.44300
C863        C  0.88229255  0.13259245  0.69060927     0.05500
O864        O  0.92129133  0.12540391  0.73906756    -0.57100
H865        H  0.95852213  0.08567764  0.73329284     0.18500
O866        O  0.93068459  0.05433170  0.64331266    -0.63800
H867        H  0.89445465  0.09470271  0.64820804     0.16900
C868        C  0.88623299  0.16133129  0.69661840     0.29200
C869        C  0.86360061  0.18001324  0.69705352    -0.24700
C870        C  0.83666817  0.17089904  0.69060549    -0.24000
C871        C  0.83301586  0.14228371  0.68348029     0.40600
C872        C  0.85550632  0.12358568  0.68382473    -0.26500
O873        O  0.91215588  0.17158619  0.70155258    -0.58300
H874        H  0.86726093  0.20183074  0.70218297     0.16200
O875        O  0.80738254  0.13194684  0.67709107    -0.59800
H876        H  0.85186474  0.10169180  0.67901754     0.14700
H877        H  0.94451614  0.06288910  0.63025254     0.46500
H878        H  0.91941234  0.17591277  0.68179345     0.41900
H879        H  0.80603794  0.13203523  0.65534110     0.45400
H880        H  0.93806360  0.13711449  0.73986257     0.36900
C881        C  0.11223877  0.10505265  0.71937470    -0.27400
C882        C  0.13003584  0.10862765  0.69555907     0.02200
C883        C  0.12845996  0.09001423  0.67163814     0.30300
C884        C  0.10892752  0.06853656  0.67156307    -0.19200
C885        C  0.09070483  0.06551297  0.69502434    -0.28600
C886        C  0.09257699  0.08377732  0.71914708     0.44300
C887        C  0.15049557  0.13150905  0.69640442     0.05500
O888        O  0.14662538  0.09203659  0.64886097    -0.57100
H889        H  0.10776445  0.05438861  0.65302133     0.18500
O890        O  0.07550026  0.08067714  0.74272374    -0.63800
H891        H  0.11340618  0.11903339  0.73805801     0.16900
C892        C  0.15052439  0.15284879  0.67493254     0.29200
C893        C  0.16963888  0.17466389  0.67686038    -0.24700
C894        C  0.18890688  0.17550316  0.70003079    -0.24000
C895        C  0.18841552  0.15449465  0.72180734     0.40600
C896        C  0.16945292  0.13266879  0.71979748    -0.26500
O897        O  0.13165303  0.15284644  0.65231491    -0.58300
H898        H  0.16940633  0.19095946  0.66025020     0.16200
O899        O  0.20571451  0.15568989  0.74575261    -0.59800
H900        H  0.16935752  0.11670111  0.73675530     0.14700
H901        H  0.06017359  0.09420750  0.73930032     0.46500
H902        H  0.11555115  0.16349985  0.65975620     0.41900
H903        H  0.19507764  0.16563224  0.76108306     0.45400
H904        H  0.13550306  0.09864696  0.63177507     0.36900
C905        C  0.27627517  0.67162099  0.57545768    -0.27400
C906        C  0.25208158  0.66212716  0.56189495     0.02200
C907        C  0.22673812  0.67491364  0.56877930     0.30300
C908        C  0.22554194  0.69480650  0.59118345    -0.19200
C909        C  0.24947481  0.70233628  0.60683995    -0.28600
C910        C  0.27522395  0.69165630  0.59762463     0.44300
C911        C  0.25340608  0.63641926  0.54402173     0.05500
O912        O  0.20282131  0.66689050  0.55501174    -0.57100
H913        H  0.20559720  0.70311643  0.59737929     0.18500
O914        O  0.29938365  0.69925970  0.61122677    -0.63800
H915        H  0.29597215  0.66201833  0.57041817     0.16900
C916        C  0.27350196  0.63310184  0.52221925     0.29200
C917        C  0.27787274  0.60685767  0.50961058    -0.24700
C918        C  0.26181421  0.58388996  0.51782815    -0.24000
C919        C  0.24050184  0.58761223  0.53814685     0.40600
C920        C  0.23673922  0.61362181  0.55150430    -0.26500
O921        O  0.28936200  0.65523668  0.51360406    -0.58300
H922        H  0.29385889  0.60434839  0.49336369     0.16200
O923        O  0.22363577  0.56582786  0.54546288    -0.59800
H924        H  0.22135440  0.61571132  0.56844298     0.14700
H925        H  0.30367436  0.68395518  0.62537686     0.46500
H926        H  0.27850345  0.66476724  0.49788768     0.41900
H927        H  0.20840748  0.56648150  0.53078859     0.45400
H928        H  0.20307410  0.67619692  0.53552583     0.36900
C929        C  0.39338341  0.82363166  0.55949856    -0.27400
C930        C  0.39654801  0.80193082  0.58015733     0.02200
C931        C  0.41639821  0.78075070  0.57566873     0.30300
C932        C  0.43250773  0.78127414  0.55049692    -0.19200
C933        C  0.42910080  0.80277233  0.52973889    -0.28600
C934        C  0.40955667  0.82412206  0.53431441     0.44300
C935        C  0.37669248  0.79947804  0.60416575     0.05500
O936        O  0.41886170  0.75854002  0.59474325    -0.57100
H937        H  0.44753325  0.76472151  0.54694228     0.18500
O938        O  0.40638942  0.84558237  0.51445548    -0.63800
H939        H  0.37796489  0.83987409  0.56268020     0.16900
C940        C  0.38521887  0.79776071  0.63371135     0.29200
C941        C  0.36601540  0.79161618  0.65541480    -0.24700
C942        C  0.33819130  0.78718132  0.64799107    -0.24000
C943        C  0.32962202  0.79037445  0.61836205     0.40600
C944        C  0.34882873  0.79661316  0.59687983    -0.26500
O945        O  0.41234713  0.80128129  0.64143239    -0.58300
H946        H  0.37313685  0.78952701  0.67794144     0.16200
O947        O  0.30262779  0.78707808  0.60992311    -0.59800
H948        H  0.34207693  0.79801971  0.57415393     0.14700
H949        H  0.39083135  0.83993844  0.50155094     0.46500
H950        H  0.41379447  0.82118250  0.64743158     0.41900
H951        H  0.30141844  0.76756914  0.60254840     0.45400
H952        H  0.43644273  0.76151303  0.60553063     0.36900
C953        C  0.35928270  0.65557018  0.74619506    -0.27400
C954        C  0.37073883  0.64450481  0.72040478     0.02200
C955        C  0.36267989  0.65640701  0.69316694     0.30300
C956        C  0.34380953  0.67885208  0.69211082    -0.19200
C957        C  0.33310347  0.69049503  0.71797395    -0.28600
C958        C  0.34089502  0.67841423  0.74517844     0.44300
C959        C  0.39141967  0.62107026  0.72212771     0.05500
O960        O  0.37379032  0.64691313  0.66742222    -0.57100
H961        H  0.33843915  0.68794430  0.67097189     0.18500
O962        O  0.33080051  0.68882679  0.77101200    -0.63800
H963        H  0.36465736  0.64650829  0.76733848     0.16900
C964        C  0.41396886  0.62196250  0.74197151     0.29200
C965        C  0.43349449  0.60014232  0.74264304    -0.24700
C966        C  0.43163213  0.57749282  0.72309999    -0.24000
C967        C  0.40905441  0.57638288  0.70346873     0.40600
C968        C  0.38903404  0.59777953  0.70337639    -0.26500
O969        O  0.41758380  0.64442156  0.76031087    -0.58300
H970        H  0.45067270  0.60128137  0.75796670     0.16200
O971        O  0.40646060  0.55453341  0.68415124    -0.59800
H972        H  0.37167302  0.59625234  0.68835759     0.14700
H973        H  0.31258584  0.67989971  0.77337584     0.46500
H974        H  0.42975684  0.65735813  0.74950838     0.41900
H975        H  0.41658805  0.56041714  0.66640552     0.45400
H976        H  0.39144364  0.65701455  0.66545677     0.36900
C977        C  0.10944191  0.87766930  0.71965599    -0.27400
C978        C  0.13084563  0.87562226  0.69919896     0.02200
C979        C  0.13217644  0.89589030  0.67664002     0.30300
C980        C  0.11200638  0.91716381  0.67435022    -0.19200
C981        C  0.09023404  0.91877066  0.69441659    -0.28600
C982        C  0.08926828  0.89891949  0.71735061     0.44300
C983        C  0.15050400  0.85130038  0.70042532     0.05500
O984        O  0.15311783  0.89504037  0.65666918    -0.58700
H985        H  0.11327651  0.93241973  0.65677317     0.18500
O986        O  0.06889901  0.90047560  0.73794436    -0.63800
H987        H  0.10796942  0.86232007  0.73711572     0.16900
C988        C  0.16676355  0.84538682  0.72555516     0.29200
C989        C  0.18409535  0.82153916  0.72635925    -0.24700
C990        C  0.18527537  0.80275287  0.70251803    -0.24000
C991        C  0.16892491  0.80895155  0.67732459     0.40600
C992        C  0.15209104  0.83302302  0.67641117    -0.26500
O993        O  0.16639287  0.86320310  0.74915142    -0.58300
H994        H  0.19632642  0.81757743  0.74597253     0.16200
O995        O  0.16909427  0.79167860  0.65329561    -0.59800
H996        H  0.13959288  0.83705575  0.65698086     0.14700
H997        H  0.05533215  0.88604916  0.73211745     0.46500
H998        H  0.15512076  0.85367855  0.76415301     0.41900
H999        H  0.15316044  0.77907772  0.65592005     0.45400
H1000       H  0.16804157  0.90642625  0.66549731     0.36900
C1001       C  0.09552069  0.71148978  0.83558356    -0.27400
C1002       C  0.11567335  0.69032370  0.83446715     0.02200
C1003       C  0.11611994  0.66897101  0.85584925     0.30300
C1004       C  0.09673982  0.66927798  0.87833215    -0.19200
C1005       C  0.07677691  0.69063175  0.87951557    -0.28600
C1006       C  0.07604492  0.71168071  0.85784217     0.44300
C1007       C  0.13733889  0.69227702  0.81223319     0.05500
O1008       O  0.13555468  0.64795628  0.85508739    -0.57100
H1009       H  0.09723722  0.65291503  0.89486728     0.18500
O1010       O  0.05697411  0.73305402  0.85898535    -0.63800
H1011       H  0.09533994  0.72833843  0.81958802     0.16900
C1012       C  0.13062622  0.69385184  0.78220189     0.29200
C1013       C  0.15114102  0.69958588  0.76184275    -0.24700
C1014       C  0.17842384  0.70452797  0.77108514    -0.24000
C1015       C  0.18520697  0.70178793  0.80122859     0.40600
C1016       C  0.16471944  0.69551628  0.82144073    -0.26500
O1017       O  0.10403990  0.68989147  0.77264023    -0.58300
H1018       H  0.14532687  0.70122007  0.73886888     0.16200
O1019       O  0.21162169  0.70559823  0.81134587    -0.59800
H1020       H  0.17002197  0.69447941  0.84459727     0.14700
H1021       H  0.04323557  0.72881386  0.84338178     0.46500
H1022       H  0.09693394  0.70882770  0.76740906     0.41900
H1023       H  0.21217744  0.72527980  0.81829474     0.45400
H1024       H  0.12850254  0.63435519  0.84045379     0.36900
C1025       C  0.89401527  0.70206607  0.85388358    -0.27400
C1026       C  0.90038423  0.72042453  0.83076811     0.02200
C1027       C  0.92580726  0.73450975  0.83150470     0.30300
C1028       C  0.94426470  0.73003067  0.85492378    -0.19200
C1029       C  0.93804150  0.71120369  0.87760165    -0.28600
C1030       C  0.91271696  0.69716569  0.87695248     0.44300
C1031       C  0.88020117  0.72466226  0.80629608     0.05500
O1032       O  0.93302337  0.75232146  0.80924933    -0.57100
H1033       H  0.96373884  0.74095805  0.85519453     0.18500
O1034       O  0.90657767  0.67783148  0.89819457    -0.63800
H1035       H  0.87441342  0.69142474  0.85411205     0.16900
C1036       C  0.86769067  0.70162510  0.79237328     0.29200
C1037       C  0.84689135  0.70597052  0.77129708    -0.24700
C1038       C  0.83803366  0.73315739  0.76361203    -0.24000
C1039       C  0.85167120  0.75627245  0.77640171     0.40600
C1040       C  0.87240090  0.75187825  0.79760507    -0.26500
O1041       O  0.87607098  0.67473978  0.79884014    -0.58300
H1042       H  0.83724378  0.68782424  0.76148353     0.16200
O1043       O  0.84491686  0.78326665  0.76852907    -0.59800
H1044       H  0.88177971  0.76990099  0.80795669     0.14700
H1045       H  0.89269823  0.68708412  0.91082198     0.46500
H1046       H  0.86046801  0.66612410  0.80935387     0.41900
H1047       H  0.83195113  0.78991666  0.78375047     0.45400
H1048       H  0.94378636  0.74062960  0.79542918     0.36900
C1049       C  0.71213189  0.91151058  0.83099677    -0.27400
C1050       C  0.73244690  0.89043951  0.83349911     0.02200
C1051       C  0.74977310  0.89003295  0.85859832     0.30300
C1052       C  0.74680542  0.91056333  0.88035381    -0.19200
C1053       C  0.72660051  0.93166978  0.87763691    -0.28600
C1054       C  0.70898915  0.93181673  0.85290038     0.44300
C1055       C  0.73611746  0.86994641  0.80915312     0.05500
O1056       O  0.76973750  0.86974012  0.86203943    -0.57100
H1057       H  0.76041746  0.91014331  0.89936300     0.18500
O1058       O  0.68892441  0.95204030  0.84974172    -0.63800
H1059       H  0.69893105  0.91255667  0.81170423     0.16900
C1060       C  0.71364853  0.85489620  0.79742817     0.29200
C1061       C  0.71727921  0.83744889  0.77288923    -0.24700
C1062       C  0.74328110  0.83431929  0.76009365    -0.24000
C1063       C  0.76584043  0.84881723  0.77224966     0.40600
C1064       C  0.76215034  0.86649132  0.79644240    -0.26500
O1065       O  0.68831109  0.85643238  0.81043798    -0.58300
H1066       H  0.69981529  0.82618864  0.76399019     0.16200
O1067       O  0.79147974  0.84647939  0.76003103    -0.59800
H1068       H  0.77959939  0.87814520  0.80478823     0.14700
H1069       H  0.67217492  0.94378099  0.85838930     0.46500
H1070       H  0.67650141  0.86748187  0.79670811     0.41900
H1071       H  0.79330851  0.86325320  0.74733505     0.45400
H1072       H  0.76030522  0.85370480  0.87133687     0.36900
C1073       C  0.70981990  0.10084454  0.83684852    -0.27400
C1074       C  0.73354800  0.11753340  0.83590786     0.02200
C1075       C  0.75354383  0.11446523  0.85848889     0.30300
C1076       C  0.74980228  0.09484555  0.88106363    -0.19200
C1077       C  0.72650769  0.07769025  0.88133290    -0.28600
C1078       C  0.70633142  0.08096762  0.85917685     0.44300
C1079       C  0.73755702  0.13742000  0.81094591     0.05500
O1080       O  0.77725262  0.12987237  0.85822301    -0.57100
H1081       H  0.76556802  0.09233869  0.89790281     0.18500
O1082       O  0.68347018  0.06429648  0.85877643    -0.63800
H1083       H  0.69396537  0.10309242  0.82008665     0.16900
C1084       C  0.73443161  0.12854313  0.78158398     0.29200
C1085       C  0.73876946  0.14734234  0.75841213    -0.24700
C1086       C  0.74666726  0.17516915  0.76374121    -0.24000
C1087       C  0.74967349  0.18411144  0.79312013     0.40600
C1088       C  0.74494915  0.16538985  0.81634443    -0.26500
O1089       O  0.72891633  0.10103473  0.77526429    -0.58300
H1090       H  0.73697589  0.13970448  0.73608882     0.16200
O1091       O  0.75748453  0.21100113  0.79943988    -0.59800
H1092       H  0.74714977  0.17278382  0.83871160     0.14700
H1093       H  0.66966319  0.07441310  0.87076469     0.46500
H1094       H  0.70969801  0.10095000  0.76766359     0.41900
H1095       H  0.74006142  0.22140192  0.80297669     0.45400
H1096       H  0.79014734  0.11916774  0.84564923     0.36900
C1097       C  0.88677653  0.29542644  0.79767778    -0.27400
C1098       C  0.89153825  0.27309643  0.81719155     0.02200
C1099       C  0.87390434  0.24988020  0.81651930     0.30300
C1100       C  0.85168617  0.24935093  0.79668965    -0.19200
C1101       C  0.84657836  0.27182091  0.77728264    -0.28600
C1102       C  0.86454851  0.29493828  0.77779900     0.44300
C1103       C  0.91407097  0.27477403  0.83922632     0.05500
O1104       O  0.87730091  0.22840806  0.83636996    -0.57100
H1105       H  0.83800578  0.23153691  0.79706016     0.18500
O1106       O  0.86103253  0.31683759  0.75852791    -0.63800
H1107       H  0.90031634  0.31335848  0.79794876     0.16900
C1108       C  0.93570994  0.25494559  0.83978351     0.29200
C1109       C  0.95564641  0.25579706  0.86222443    -0.24700
C1110       C  0.95444430  0.27645114  0.88409120    -0.24000
C1111       C  0.93334332  0.29687527  0.88288723     0.40600
C1112       C  0.91336870  0.29596130  0.86052336    -0.26500
O1113       O  0.93793419  0.23530836  0.81793439    -0.58300
H1114       H  0.97199447  0.24018801  0.86270683     0.16200
O1115       O  0.93239571  0.31799836  0.90326349    -0.59800
H1116       H  0.89696253  0.31151118  0.86012178     0.14700
H1117       H  0.85118843  0.33155642  0.76975440     0.46500
H1118       H  0.93485819  0.21695742  0.82756328     0.41900
H1119       H  0.91755507  0.31274814  0.91697487     0.45400
H1120       H  0.88345919  0.21202894  0.82469912     0.36900
C1121       C  0.18162132  0.24356437  0.83174245    -0.27400
C1122       C  0.16038180  0.26362821  0.83053283     0.02200
C1123       C  0.15796733  0.28122638  0.80584800     0.30300
C1124       C  0.17619475  0.27815928  0.78243402    -0.19200
C1125       C  0.19697482  0.25734092  0.78289074    -0.28600
C1126       C  0.19984820  0.24029839  0.80825491     0.44300
C1127       C  0.13963697  0.26493150  0.85410641     0.05500
O1128       O  0.13719181  0.30084650  0.80393736    -0.57100
H1129       H  0.17330943  0.29154001  0.76338700     0.18500
O1130       O  0.22026374  0.22031269  0.81038882    -0.63800
H1131       H  0.18373798  0.23000403  0.85076580     0.16900
C1132       C  0.12088453  0.24290039  0.85787584     0.29200
C1133       C  0.10000340  0.24520432  0.87874036    -0.24700
C1134       C  0.09758430  0.26932483  0.89610046    -0.24000
C1135       C  0.11666093  0.29111978  0.89277895     0.40600
C1136       C  0.13746443  0.28889232  0.87178204    -0.26500
O1137       O  0.12246549  0.21931317  0.84079264    -0.58300
H1138       H  0.08541823  0.22831900  0.88114928     0.16200
O1139       O  0.11493679  0.31474331  0.90978346    -0.59800
H1140       H  0.15176216  0.30598361  0.86904683     0.14700
H1141       H  0.21125691  0.20237649  0.80524689     0.46500
H1142       H  0.11098967  0.22356971  0.82317145     0.41900
H1143       H  0.10146280  0.32714642  0.89949053     0.45400
H1144       H  0.12114295  0.29068644  0.79571041     0.36900
C1145       C  0.28697032  0.05993982  0.84176075    -0.27400
C1146       C  0.26823589  0.07958569  0.82999572     0.02200
C1147       C  0.24066853  0.07972854  0.83937512     0.30300
C1148       C  0.23245886  0.06119208  0.86125479    -0.19200
C1149       C  0.25148276  0.04245777  0.87388604    -0.28600
C1150       C  0.27868441  0.04131513  0.86360285     0.44300
C1151       C  0.27794660  0.10201594  0.81054836     0.05500
O1152       O  0.22201943  0.09893833  0.82841795    -0.57100
H1153       H  0.21155243  0.06224982  0.86932333     0.18500
O1154       O  0.29771746  0.02354397  0.87631624    -0.63800
H1155       H  0.30823633  0.05979694  0.83477098     0.16900
C1156       C  0.29648205  0.12220754  0.82123032     0.29200
C1157       C  0.30102628  0.14663025  0.80503309    -0.24700
C1158       C  0.28724401  0.15104161  0.77822508    -0.24000
C1159       C  0.27077288  0.12963178  0.76633027     0.40600
C1160       C  0.26596099  0.10540199  0.78266079    -0.26500
O1161       O  0.30811020  0.11950091  0.84867798    -0.58300
H1162       H  0.31383688  0.16290509  0.81434145     0.16200
O1163       O  0.25849624  0.13274749  0.73924272    -0.59800
H1164       H  0.25197209  0.08976529  0.77410208     0.14700
H1165       H  0.29603037  0.00570396  0.86534565     0.46500
H1166       H  0.32679823  0.11166263  0.84533038     0.41900
H1167       H  0.26952009  0.12090062  0.72580359     0.45400
H1168       H  0.22377789  0.11557359  0.84130225     0.36900
C1169       C  0.24326146  0.85444764  0.90048030    -0.27400
C1170       C  0.26444792  0.85405802  0.87971340     0.02200
C1171       C  0.28051410  0.87828469  0.87577701     0.30300
C1172       C  0.27484505  0.90235921  0.89213723    -0.19200
C1173       C  0.25263389  0.90308703  0.91154197    -0.28600
C1174       C  0.23699110  0.87882020  0.91595261     0.44300
C1175       C  0.26665023  0.82984954  0.85956064     0.05500
O1176       O  0.29993523  0.87955836  0.85412788    -0.57100
H1177       H  0.28704248  0.92097086  0.88868343     0.18500
O1178       O  0.21444150  0.87934093  0.93389075    -0.63800
H1179       H  0.23064789  0.83610842  0.90376547     0.16900
C1180       C  0.29219521  0.81795522  0.85179338     0.29200
C1181       C  0.29348539  0.79859893  0.82886457    -0.24700
C1182       C  0.26941286  0.79018808  0.81396543    -0.24000
C1183       C  0.24362446  0.79963664  0.82422196     0.40600
C1184       C  0.24247989  0.81953581  0.84650233    -0.26500
O1185       O  0.31607849  0.82567329  0.86579609    -0.58300
H1186       H  0.31352273  0.79104643  0.82202181     0.16200
O1187       O  0.21938670  0.79058146  0.81187375    -0.59800
H1188       H  0.22252124  0.82797154  0.85247759     0.14700
H1189       H  0.21968588  0.86780469  0.95124170     0.46500
H1190       H  0.31764415  0.81314965  0.88314339     0.41900
H1191       H  0.21367402  0.80551766  0.79784838     0.45400
H1192       H  0.31783841  0.88195379  0.86448432     0.36900
C1193       C  0.37188464  0.79237561  0.35090958    -0.27400
C1194       C  0.37207493  0.76659482  0.33607770     0.02200
C1195       C  0.39252571  0.74649084  0.34315421     0.30300
C1196       C  0.41276642  0.75262681  0.36427947    -0.19200
C1197       C  0.41277777  0.77857616  0.37871531    -0.28600
C1198       C  0.39202457  0.79840499  0.37214169     0.44300
C1199       C  0.35209127  0.76183484  0.31180939     0.05500
O1200       O  0.39392973  0.72161169  0.32816507    -0.57100
H1201       H  0.42889794  0.73736942  0.36895432     0.18500
O1202       O  0.39167297  0.82394455  0.38588622    -0.63800
H1203       H  0.35632302  0.80805276  0.34560333     0.16900
C1204       C  0.33356358  0.73933584  0.31227761     0.29200
C1205       C  0.31564510  0.73491419  0.28842812    -0.24700
C1206       C  0.31565066  0.75285902  0.26381781    -0.24000
C1207       C  0.33386679  0.77588281  0.26390625     0.40600
C1208       C  0.35181173  0.78009416  0.28768491    -0.26500
O1209       O  0.33283606  0.72151355  0.33591352    -0.58300
H1210       H  0.30184904  0.71721509  0.28918395     0.16200
O1211       O  0.33513620  0.79392872  0.24048540    -0.59800
H1212       H  0.36599514  0.79749440  0.28704324     0.14700
H1213       H  0.40275815  0.83638921  0.37325862     0.46500
H1214       H  0.32004824  0.73052191  0.34995017     0.41900
H1215       H  0.32234439  0.80953504  0.24530853     0.45400
H1216       H  0.38810879  0.70708980  0.34236760     0.36900
C1217       C  0.22433811  0.61111753  0.30905769    -0.27400
C1218       C  0.24861357  0.59584534  0.30390817     0.02200
C1219       C  0.26504825  0.60263157  0.27978649     0.30300
C1220       C  0.25815727  0.62578933  0.26235455    -0.19200
C1221       C  0.23506445  0.64255216  0.26879462    -0.28600
C1222       C  0.21752332  0.63447053  0.29178675     0.44300
C1223       C  0.25840129  0.57553031  0.32609495     0.05500
O1224       O  0.28799510  0.58683253  0.27340400    -0.57100
H1225       H  0.27152568  0.63118945  0.24436159     0.18500
O1226       O  0.19460000  0.65004404  0.29867237    -0.63800
H1227       H  0.21155836  0.60598101  0.32765481     0.16900
C1228       C  0.28282240  0.58080697  0.34204245     0.29200
C1229       C  0.29015923  0.56369216  0.36576635    -0.24700
C1230       C  0.27330599  0.54147053  0.37389886    -0.24000
C1231       C  0.24938157  0.53552999  0.35745352     0.40600
C1232       C  0.24198179  0.55264299  0.33366563    -0.26500
O1233       O  0.29802675  0.60430623  0.33645258    -0.58300
H1234       H  0.30812326  0.56878560  0.37896666     0.16200
O1235       O  0.23199426  0.51461222  0.36603854    -0.59800
H1236       H  0.22291813  0.54876384  0.32183514     0.14700
H1237       H  0.20103223  0.66394069  0.31332867     0.46500
H1238       H  0.31611130  0.59731617  0.32948803     0.41900
H1239       H  0.23942401  0.49730015  0.35694620     0.45400
H1240       H  0.30392300  0.59949611  0.27602196     0.36900
C1241       C  0.40004651  0.60376195  0.19409199    -0.27400
C1242       C  0.38500449  0.60955473  0.16834311     0.02200
C1243       C  0.39096213  0.59490638  0.14237884     0.30300
C1244       C  0.41165065  0.57428945  0.14253853    -0.19200
C1245       C  0.42647059  0.56835477  0.16843471    -0.28600
C1246       C  0.42078609  0.58336147  0.19421761     0.44300
C1247       C  0.36246073  0.63025992  0.16938453     0.05500
O1248       O  0.37634097  0.60025889  0.11702566    -0.57100
H1249       H  0.41586913  0.56262202  0.12267807     0.18500
O1250       O  0.43469022  0.57736635  0.21987455    -0.63800
H1251       H  0.39545831  0.61492170  0.21418542     0.16900
C1252       C  0.33851566  0.62446547  0.18523350     0.29200
C1253       C  0.31824575  0.64512622  0.18834940    -0.24700
C1254       C  0.32158020  0.67188740  0.17598219    -0.24000
C1255       C  0.34537901  0.67732384  0.15932701     0.40600
C1256       C  0.36551062  0.65643628  0.15597666    -0.26500
O1257       O  0.33510398  0.59886092  0.19839377    -0.58300
H1258       H  0.30025650  0.64039314  0.20123750     0.16200
O1259       O  0.34908087  0.70281818  0.14602109    -0.59800
H1260       H  0.38390905  0.66093170  0.14360424     0.14700
H1261       H  0.45071879  0.59010428  0.22008003     0.46500
H1262       H  0.32738571  0.58665120  0.18281184     0.41900
H1263       H  0.36208127  0.71302656  0.15900123     0.45400
H1264       H  0.36050544  0.58728462  0.11752690     0.36900
C1265       C  0.24549992  0.92623531  0.09940227    -0.27400
C1266       C  0.22956303  0.90203021  0.10167204     0.02200
C1267       C  0.20834065  0.89695745  0.08113204     0.30300
C1268       C  0.20416524  0.91536810  0.05770887    -0.19200
C1269       C  0.22120016  0.93862404  0.05442703    -0.28600
C1270       C  0.24150243  0.94450949  0.07575458     0.44300
C1271       C  0.23725448  0.88019996  0.12295998     0.05500
O1272       O  0.19287816  0.87307560  0.08268209    -0.57100
H1273       H  0.18883497  0.91056460  0.04104370     0.18500
O1274       O  0.25857323  0.96705280  0.07260702    -0.63800
H1275       H  0.26195295  0.93011461  0.11509369     0.16900
C1276       C  0.26209207  0.86521778  0.11977069     0.29200
C1277       C  0.26683748  0.84098387  0.13630368    -0.24700
C1278       C  0.24698615  0.83144702  0.15609365    -0.24000
C1279       C  0.22286430  0.84767291  0.16054447     0.40600
C1280       C  0.21813626  0.87178148  0.14386298    -0.26500
O1281       O  0.28067324  0.87272033  0.09871912    -0.58300
H1282       H  0.28548494  0.82894306  0.13250731     0.16200
O1283       O  0.20323013  0.83965073  0.18023406    -0.59800
H1284       H  0.19898805  0.88334090  0.14638599     0.14700
H1285       H  0.27462209  0.95985339  0.06152490     0.46500
H1286       H  0.29572951  0.88224945  0.10954072     0.41900
H1287       H  0.20860329  0.84867201  0.19900544     0.45400
H1288       H  0.20368428  0.85855562  0.07217843     0.36900
C1289       C  0.13240118  0.69532113  0.13070463    -0.27400
C1290       C  0.13643842  0.71155670  0.10540246     0.02200
C1291       C  0.15763571  0.73151953  0.10545818     0.30300
C1292       C  0.17368696  0.73567462  0.13079372    -0.19200
C1293       C  0.16929730  0.71990083  0.15646502    -0.28600
C1294       C  0.14868296  0.69915105  0.15595743     0.44300
C1295       C  0.11757940  0.70843188  0.07967760     0.05500
O1296       O  0.16270398  0.74727186  0.08090271    -0.57100
H1297       H  0.18956811  0.75147424  0.13032159     0.18500
O1298       O  0.14326496  0.68339020  0.18040818    -0.63800
H1299       H  0.11601548  0.68006352  0.13118548     0.16900
C1300       C  0.11260909  0.68197834  0.06695880     0.29200
C1301       C  0.09359886  0.67942636  0.04375568    -0.24700
C1302       C  0.07935779  0.70301004  0.03293117    -0.24000
C1303       C  0.08454563  0.72946327  0.04524770     0.40600
C1304       C  0.10349531  0.73204793  0.06844597    -0.26500
O1305       O  0.12606303  0.65846565  0.07718160    -0.58300
H1306       H  0.08965534  0.65896630  0.03442515     0.16200
O1307       O  0.07058657  0.75276917  0.03525857    -0.59800
H1308       H  0.10673326  0.75248092  0.07815257     0.14700
H1309       H  0.15349017  0.66553284  0.17754560     0.46500
H1310       H  0.14422120  0.65852536  0.06740782     0.41900
H1311       H  0.08205461  0.76034553  0.01924256     0.45400
H1312       H  0.17591255  0.73596789  0.06929631     0.36900
C1313       C  0.78640541  0.62611230  0.27905020    -0.27400
C1314       C  0.77696500  0.63345346  0.30691055     0.02200
C1315       C  0.76400012  0.65959582  0.31096079     0.30300
C1316       C  0.75915097  0.67737208  0.28683012    -0.19200
C1317       C  0.76710264  0.66939789  0.25835167    -0.28600
C1318       C  0.78182942  0.64382715  0.25492865     0.44300
C1319       C  0.77851946  0.61250296  0.33083574     0.05500
O1320       O  0.75577909  0.66778669  0.33838363    -0.57100
H1321       H  0.74837307  0.69703732  0.29034465     0.18500
O1322       O  0.79051376  0.63501646  0.22788433    -0.63800
H1323       H  0.79650814  0.60602961  0.27577715     0.16900
C1324       C  0.75550408  0.59590966  0.33719482     0.29200
C1325       C  0.75738541  0.57512985  0.35890847    -0.24700
C1326       C  0.78200690  0.57087196  0.37472300    -0.24000
C1327       C  0.80502597  0.58749528  0.36841149     0.40600
C1328       C  0.80327649  0.60801165  0.34634732    -0.26500
O1329       O  0.73132989  0.59942209  0.32170691    -0.58300
H1330       H  0.73954516  0.56247779  0.36365410     0.16200
O1331       O  0.82936397  0.58353017  0.38345346    -0.59800
H1332       H  0.82118614  0.62047703  0.34137564     0.14700
H1333       H  0.80986552  0.64133643  0.22650796     0.46500
H1334       H  0.71958386  0.61144189  0.33426050     0.41900
H1335       H  0.82830192  0.59630312  0.40056258     0.45400
H1336       H  0.73621562  0.66218184  0.33970007     0.36900
C1337       C  0.62266227  0.79520068  0.27880295    -0.27400
C1338       C  0.61684408  0.77473332  0.29986242     0.02200
C1339       C  0.63336661  0.75043322  0.30176870     0.30300
C1340       C  0.65579909  0.74715213  0.28313564    -0.19200
C1341       C  0.66238673  0.76811873  0.26272390    -0.28600
C1342       C  0.64532989  0.79218572  0.26042013     0.44300
C1343       C  0.59446425  0.77957995  0.32087055     0.05500
O1344       O  0.62826542  0.73019070  0.32240082    -0.57100
H1345       H  0.66857208  0.72851785  0.28538069     0.18500
O1346       O  0.65036382  0.81274921  0.24012055    -0.63800
H1347       H  0.60979826  0.81380822  0.27692311     0.16900
C1348       C  0.59499019  0.80301777  0.33956895     0.29200
C1349       C  0.57481209  0.80622789  0.36093049    -0.24700
C1350       C  0.55406235  0.78622813  0.36395710    -0.24000
C1351       C  0.55321316  0.76307395  0.34487799     0.40600
C1352       C  0.57325474  0.75998616  0.32332769    -0.26500
O1353       O  0.61613864  0.82185648  0.33834072    -0.58300
H1354       H  0.57577021  0.82393154  0.37576415     0.16200
O1355       O  0.53323335  0.74311521  0.34755735    -0.59800
H1356       H  0.57263287  0.74195294  0.30892114     0.14700
H1357       H  0.66034045  0.82753521  0.25107824     0.46500
H1358       H  0.60839210  0.83841558  0.32784813     0.41900
H1359       H  0.54053585  0.72967395  0.36240437     0.45400
H1360       H  0.63907647  0.73576402  0.34000622     0.36900
C1361       C  0.62860002  0.64833747  0.19375972    -0.27400
C1362       C  0.63420216  0.62070519  0.18509729     0.02200
C1363       C  0.66075997  0.61357326  0.17544986     0.30300
C1364       C  0.68131747  0.63391502  0.17475844    -0.19200
C1365       C  0.67598475  0.66162952  0.18386732    -0.28600
C1366       C  0.64913839  0.66873454  0.19319003     0.44300
C1367       C  0.61204267  0.59962628  0.18588430     0.05500
O1368       O  0.66695893  0.58664046  0.16715670    -0.57100
H1369       H  0.70171787  0.62767329  0.16773584     0.18500
O1370       O  0.64268893  0.69542396  0.20205525    -0.63800
H1371       H  0.60810526  0.65417059  0.20085851     0.16900
C1372       C  0.59847977  0.59335610  0.21227589     0.29200
C1373       C  0.57684498  0.57413068  0.21231122    -0.24700
C1374       C  0.56853136  0.56106248  0.18619794    -0.24000
C1375       C  0.58219308  0.56711718  0.15989433     0.40600
C1376       C  0.60388615  0.58620700  0.15986230    -0.26500
O1377       O  0.60689412  0.60521836  0.23823463    -0.58300
H1378       H  0.56656623  0.56933690  0.23269800     0.16200
O1379       O  0.57452661  0.55428786  0.13419074    -0.59800
H1380       H  0.61408743  0.59090102  0.13940319     0.14700
H1381       H  0.63625326  0.70526085  0.18401198     0.46500
H1382       H  0.59329036  0.62033746  0.24217462     0.41900
H1383       H  0.56114554  0.56735891  0.12470131     0.45400
H1384       H  0.67429272  0.57738363  0.18516152     0.36900
C1385       C  0.89221585  0.69570741  0.04750989    -0.27400
C1386       C  0.89475507  0.71450467  0.07099688     0.02200
C1387       C  0.91897476  0.73022372  0.07435024     0.30300
C1388       C  0.93985896  0.72774051  0.05362631    -0.19200
C1389       C  0.93713737  0.70918155  0.02996835    -0.28600
C1390       C  0.91331850  0.69277495  0.02722885     0.44300
C1391       C  0.87188070  0.71737398  0.09177261     0.05500
O1392       O  0.92280676  0.74703515  0.09845819    -0.57100
H1393       H  0.95827926  0.74021794  0.05606228     0.18500
O1394       O  0.91035664  0.67412497  0.00454957    -0.63800
H1395       H  0.87370274  0.68341571  0.04479164     0.16900
C1396       C  0.85978335  0.74367698  0.09748811     0.29200
C1397       C  0.83784935  0.74573990  0.11690942    -0.24700
C1398       C  0.82715195  0.72169310  0.13033749    -0.24000
C1399       C  0.83896724  0.69522641  0.12396455     0.40600
C1400       C  0.86118948  0.69331661  0.10491677    -0.26500
O1401       O  0.86876898  0.76741538  0.08366043    -0.58300
H1402       H  0.82894986  0.76623557  0.12106172     0.16200
O1403       O  0.82854746  0.67096408  0.13543875    -0.59800
H1404       H  0.87007315  0.67289738  0.10029073     0.14700
H1405       H  0.92044779  0.65699665  0.01101179     0.46500
H1406       H  0.85968744  0.76729820  0.06405397     0.41900
H1407       H  0.83985391  0.66703183  0.15326204     0.45400
H1408       H  0.92371713  0.76645745  0.09074327     0.36900
C1409       C  0.74249532  0.88850940  0.05155103    -0.27400
C1410       C  0.71991033  0.88284725  0.06963556     0.02200
C1411       C  0.69565861  0.89919639  0.06617083     0.30300
C1412       C  0.69467855  0.92131975  0.04584612    -0.19200
C1413       C  0.71747721  0.92719680  0.02831893    -0.28600
C1414       C  0.74127621  0.91027859  0.03084875     0.44300
C1415       C  0.72266167  0.86171664  0.09372419     0.05500
O1416       O  0.67287656  0.89390766  0.08278836    -0.57100
H1417       H  0.67609022  0.93392541  0.04371264     0.18500
O1418       O  0.76385001  0.91560850  0.01392983    -0.63800
H1419       H  0.76147772  0.87662352  0.05409932     0.16900
C1420       C  0.73282578  0.83434135  0.08885190     0.29200
C1421       C  0.73661167  0.81570424  0.11258624    -0.24700
C1422       C  0.73063919  0.82392783  0.14155331    -0.24000
C1423       C  0.72003554  0.85130381  0.14612457     0.40600
C1424       C  0.71631844  0.86974970  0.12247695    -0.26500
O1425       O  0.73856401  0.82543338  0.06092448    -0.58300
H1426       H  0.74466992  0.79488918  0.10827309     0.16200
O1427       O  0.71452857  0.86097496  0.17380905    -0.59800
H1428       H  0.70913220  0.89088238  0.12684619     0.14700
H1429       H  0.76094194  0.90467012  0.99568315     0.46500
H1430       H  0.75894523  0.82420382  0.06000964     0.41900
H1431       H  0.69441502  0.85853569  0.17625480     0.45400
H1432       H  0.66300703  0.87876592  0.07228294     0.36900
C1433       C  0.63237988  0.20010498  0.30257584    -0.27400
C1434       C  0.62185748  0.22489286  0.31472455     0.02200
C1435       C  0.63322287  0.25072965  0.30635553     0.30300
C1436       C  0.65511179  0.25140007  0.28653394    -0.19200
C1437       C  0.66616076  0.22653071  0.27479630    -0.28600
C1438       C  0.65418767  0.20069045  0.28278358     0.44300
C1439       C  0.60024254  0.22322004  0.33744422     0.05500
O1440       O  0.62442067  0.27523165  0.31906459    -0.57100
H1441       H  0.66396420  0.27148796  0.28108291     0.18500
O1442       O  0.66412298  0.17570195  0.27224193    -0.63800
H1443       H  0.62383540  0.18006230  0.30877700     0.16900
C1444       C  0.57552816  0.23881844  0.33508036     0.29200
C1445       C  0.55618487  0.23776351  0.35761915    -0.24700
C1446       C  0.56048764  0.22024480  0.38209583    -0.24000
C1447       C  0.58465776  0.20374701  0.38383780     0.40600
C1448       C  0.60442626  0.20556999  0.36184194    -0.26500
O1449       O  0.56986576  0.25478021  0.31064553    -0.58300
H1450       H  0.53756063  0.25036056  0.35582937     0.16200
O1451       O  0.58927533  0.18600275  0.40715249    -0.59800
H1452       H  0.62320060  0.19323958  0.36391590     0.14700
H1453       H  0.65249203  0.17149584  0.25479956     0.46500
H1454       H  0.56169999  0.24163719  0.29620621     0.41900
H1455       H  0.57865756  0.16889159  0.40249252     0.45400
H1456       H  0.61529852  0.28609232  0.30305213     0.36900
C1457       C  0.75649100  0.40262966  0.34153893    -0.27400
C1458       C  0.77720788  0.38203486  0.33887809     0.02200
C1459       C  0.80033662  0.38323615  0.35787363     0.30300
C1460       C  0.80232907  0.40454744  0.37909631    -0.19200
C1461       C  0.78152482  0.42503597  0.38171224    -0.28600
C1462       C  0.75846435  0.42384771  0.36271178     0.44300
C1463       C  0.77445160  0.35978636  0.31594859     0.05500
O1464       O  0.82106736  0.36364295  0.35592768    -0.57100
H1465       H  0.82022159  0.40518641  0.39348399     0.18500
O1466       O  0.73788027  0.44363169  0.36440939    -0.63800
H1467       H  0.73878008  0.40244449  0.32687919     0.16900
C1468       C  0.75075564  0.34298643  0.31422291     0.29200
C1469       C  0.74746199  0.32372732  0.29116999    -0.24700
C1470       C  0.76736059  0.32094980  0.26904639    -0.24000
C1471       C  0.79167790  0.33698429  0.27156836     0.40600
C1472       C  0.79498443  0.35614430  0.29474178    -0.26500
O1473       O  0.73080852  0.34501279  0.33526243    -0.58300
H1474       H  0.72869385  0.31164168  0.29013959     0.16200
O1475       O  0.81211054  0.33474607  0.25111634    -0.59800
H1476       H  0.81336801  0.36883359  0.29563475     0.14700
H1477       H  0.72554879  0.43687528  0.38008649     0.46500
H1478       H  0.71514511  0.35502314  0.32564867     0.41900
H1479       H  0.82466767  0.31984910  0.25871676     0.45400
H1480       H  0.81616583  0.34873346  0.37009575     0.36900
C1481       C  0.65861938  0.37362588  0.19300228    -0.27400
C1482       C  0.63240196  0.36190244  0.18994108     0.02200
C1483       C  0.62971844  0.33282154  0.18682787     0.30300
C1484       C  0.65319725  0.31567220  0.18726061    -0.19200
C1485       C  0.67960588  0.32717819  0.19094020    -0.28600
C1486       C  0.68216374  0.35651629  0.19370632     0.44300
C1487       C  0.60798799  0.38035185  0.18994548     0.05500
O1488       O  0.60428134  0.32110493  0.18265201    -0.57100
H1489       H  0.65067889  0.29325848  0.18479876     0.18500
O1490       O  0.70740952  0.36868050  0.19774458    -0.63800
H1491       H  0.66075863  0.39609981  0.19537341     0.16900
C1492       C  0.59066390  0.38174101  0.21451610     0.29200
C1493       C  0.56837407  0.40055756  0.21457553    -0.24700
C1494       C  0.56337856  0.41804762  0.19029949    -0.24000
C1495       C  0.58042694  0.41625869  0.16559619     0.40600
C1496       C  0.60261555  0.39747322  0.16552599    -0.26500
O1497       O  0.59568538  0.36516564  0.23866163    -0.58300
H1498       H  0.55536991  0.40198493  0.23371660     0.16200
O1499       O  0.57544428  0.43283972  0.14144280    -0.59800
H1500       H  0.61583225  0.39642209  0.14652067     0.14700
H1501       H  0.71033450  0.36913431  0.21932846     0.46500
H1502       H  0.60851075  0.37606361  0.25119440     0.41900
H1503       H  0.58653990  0.44992128  0.14472097     0.45400
H1504       H  0.59869265  0.31442121  0.20232527     0.36900
C1505       C  0.70603743  0.15065285  0.11557012    -0.27400
C1506       C  0.72814329  0.13567205  0.10316738     0.02200
C1507       C  0.75497774  0.14025063  0.11432500     0.30300
C1508       C  0.75943079  0.15974464  0.13677827    -0.19200
C1509       C  0.73736441  0.17431167  0.14948742    -0.28600
C1510       C  0.71046463  0.16962279  0.13872496     0.44300
C1511       C  0.72345282  0.11539381  0.07864257     0.05500
O1512       O  0.77699400  0.12508913  0.10407474    -0.57100
H1513       H  0.78017742  0.16253242  0.14523566     0.18500
O1514       O  0.68839946  0.18346754  0.15067379    -0.63800
H1515       H  0.68528357  0.14771945  0.10725055     0.16900
C1516       C  0.70344916  0.09413363  0.08030321     0.29200
C1517       C  0.70096522  0.07430270  0.05765717    -0.24700
C1518       C  0.71860445  0.07482384  0.03334336    -0.24000
C1519       C  0.73822954  0.09635670  0.03152183     0.40600
C1520       C  0.74020011  0.11653865  0.05368690    -0.26500
O1521       O  0.68672810  0.09202593  0.10428301    -0.58300
H1522       H  0.68563032  0.05804099  0.05939073     0.16200
O1523       O  0.75592690  0.09766474  0.00828434    -0.59800
H1524       H  0.75534955  0.13293617  0.05160165     0.14700
H1525       H  0.68526185  0.20007646  0.13790222     0.46500
H1526       H  0.69760904  0.08116206  0.11900471     0.41900
H1527       H  0.77157522  0.08513370  0.01371852     0.45400
H1528       H  0.77774847  0.10791829  0.11638194     0.36900
C1529       C  0.86815517  0.24468299  0.10811085    -0.27400
C1530       C  0.88048125  0.27043962  0.10160922     0.02200
C1531       C  0.87109304  0.29472232  0.11609510     0.30300
C1532       C  0.84925547  0.29317492  0.13591099    -0.19200
C1533       C  0.83646437  0.26749418  0.14209059    -0.28600
C1534       C  0.84644835  0.24302133  0.12810686     0.44300
C1535       C  0.90275576  0.27186430  0.07938713     0.05500
O1536       O  0.88314636  0.32014672  0.11104936    -0.57100
H1537       H  0.84229412  0.31227498  0.14641686     0.18500
O1538       O  0.83493974  0.21736280  0.13335290    -0.63800
H1539       H  0.87497968  0.22578078  0.09711946     0.16900
C1540       C  0.92612826  0.25415606  0.08123341     0.29200
C1541       C  0.94677656  0.25585080  0.06004076    -0.24700
C1542       C  0.94482014  0.27534270  0.03692004    -0.24000
C1543       C  0.92149092  0.29306141  0.03505786     0.40600
C1544       C  0.90063350  0.29108549  0.05600034    -0.26500
O1545       O  0.92918768  0.23536144  0.10388691    -0.58300
H1546       H  0.96459235  0.24208491  0.06180756     0.16200
O1547       O  0.91885641  0.31234646  0.01280713    -0.59800
H1548       H  0.88268196  0.30462530  0.05394806     0.14700
H1549       H  0.81997087  0.21555698  0.11850743     0.46500
H1550       H  0.93798535  0.24605500  0.12004858     0.41900
H1551       H  0.92977704  0.32869640  0.01933566     0.45400
H1552       H  0.89834316  0.32135097  0.12570009     0.36900
C1553       C  0.23014171  0.33642542  0.34504450    -0.27400
C1554       C  0.25359370  0.35328470  0.34360484     0.02200
C1555       C  0.26979204  0.35274740  0.31820513     0.30300
C1556       C  0.26301436  0.33478481  0.29515015    -0.19200
C1557       C  0.23995012  0.31717137  0.29675832    -0.28600
C1558       C  0.22322732  0.31846513  0.32194821     0.44300
C1559       C  0.26075947  0.37175649  0.36846254     0.05500
O1560       O  0.29238577  0.36963509  0.31575897    -0.57100
H1561       H  0.27621265  0.33444493  0.27610754     0.18500
O1562       O  0.20034705  0.30203005  0.32456328    -0.63800
H1563       H  0.21741957  0.33676314  0.36445517     0.16900
C1564       C  0.24148397  0.39140579  0.37899281     0.29200
C1565       C  0.24910224  0.40996610  0.40113279    -0.24700
C1566       C  0.27590787  0.40948979  0.41281097    -0.24000
C1567       C  0.29502523  0.38942835  0.40306476     0.40600
C1568       C  0.28731498  0.37050411  0.38108772    -0.26500
O1569       O  0.21554173  0.39345734  0.36691114    -0.58300
H1570       H  0.23444645  0.42573672  0.40829811     0.16200
O1571       O  0.32132533  0.38869124  0.41434981    -0.59800
H1572       H  0.30223725  0.35524981  0.37340493     0.14700
H1573       H  0.20671853  0.28516184  0.33553627     0.46500
H1574       H  0.21740808  0.40613867  0.34977554     0.41900
H1575       H  0.33244447  0.39989183  0.40053692     0.45400
H1576       H  0.28580555  0.38632766  0.30463341     0.36900
C1577       C  0.33377493  0.23287210  0.32134980    -0.27400
C1578       C  0.35813432  0.21732354  0.31793230     0.02200
C1579       C  0.36393680  0.20514566  0.29054513     0.30300
C1580       C  0.34592012  0.20944936  0.26671780    -0.19200
C1581       C  0.32212553  0.22615562  0.26970039    -0.28600
C1582       C  0.31578098  0.23727899  0.29761060     0.44300
C1583       C  0.37826938  0.21564655  0.34246440     0.05500
O1584       O  0.38772211  0.18995960  0.28656581    -0.57100
H1585       H  0.35125170  0.20069126  0.24557345     0.18500
O1586       O  0.29241034  0.25307738  0.30186287    -0.63800
H1587       H  0.32896126  0.24209206  0.34243078     0.16900
C1588       C  0.39064881  0.24015602  0.35333610     0.29200
C1589       C  0.41076827  0.23831312  0.37545859    -0.24700
C1590       C  0.41837931  0.21226716  0.38741962    -0.24000
C1591       C  0.40555632  0.18780245  0.37714228     0.40600
C1592       C  0.38568561  0.18956898  0.35464648    -0.26500
O1593       O  0.38408016  0.26585582  0.34150718    -0.58300
H1594       H  0.42065471  0.25722620  0.38318424     0.16200
O1595       O  0.41233459  0.16218161  0.38898474    -0.59800
H1596       H  0.37609917  0.17060758  0.34662868     0.14700
H1597       H  0.27798579  0.23944119  0.30718141     0.46500
H1598       H  0.37085177  0.27442846  0.35538098     0.41900
H1599       H  0.42691377  0.15448056  0.37613396     0.45400
H1600       H  0.40132975  0.20365540  0.27931729     0.36900
C1601       C  0.36275263  0.33757834  0.17121449    -0.27400
C1602       C  0.35660214  0.36264144  0.18562774     0.02200
C1603       C  0.33202659  0.36533319  0.20142112     0.30300
C1604       C  0.31409667  0.34259647  0.20311073    -0.19200
C1605       C  0.32077743  0.31694032  0.18962159    -0.28600
C1606       C  0.34521386  0.31476110  0.17319739     0.44300
C1607       C  0.37680740  0.38525806  0.18441157     0.05500
O1608       O  0.32526688  0.39015000  0.21481992    -0.57100
H1609       H  0.29539266  0.34482704  0.21570774     0.18500
O1610       O  0.35205356  0.29056617  0.15865333    -0.63800
H1611       H  0.38163237  0.33550187  0.15886657     0.16900
C1612       C  0.39252905  0.39222389  0.20940941     0.29200
C1613       C  0.41407924  0.41123428  0.20692335    -0.24700
C1614       C  0.42017713  0.42317310  0.17964135    -0.24000
C1615       C  0.40437039  0.41634472  0.15470741     0.40600
C1616       C  0.38277915  0.39743031  0.15719662    -0.26500
O1617       O  0.38738621  0.38004135  0.23608985    -0.58300
H1618       H  0.42617867  0.41658467  0.22620673     0.16200
O1619       O  0.40993286  0.42804764  0.12791265    -0.59800
H1620       H  0.37097287  0.39179847  0.13779733     0.14700
H1621       H  0.36596373  0.28103155  0.17138126     0.46500
H1622       H  0.40045273  0.36399302  0.23758347     0.41900
H1623       H  0.42491663  0.41630683  0.11965665     0.45400
H1624       H  0.32926364  0.38712326  0.23599686     0.36900
C1625       C  0.12377639  0.30112576  0.07561784    -0.27400
C1626       C  0.12391762  0.27856680  0.09536249     0.02200
C1627       C  0.10539901  0.25636681  0.09131107     0.30300
C1628       C  0.08684505  0.25695924  0.06771525    -0.19200
C1629       C  0.08661324  0.27952492  0.04799232    -0.28600
C1630       C  0.10504120  0.30180123  0.05207886     0.44300
C1631       C  0.14367806  0.27774004  0.12000519     0.05500
O1632       O  0.10539216  0.23400102  0.11029497    -0.57100
H1633       H  0.07268283  0.23975882  0.06465238     0.18500
O1634       O  0.10488091  0.32419114  0.03314852    -0.63800
H1635       H  0.13804740  0.31823415  0.07862919     0.16900
C1636       C  0.17137143  0.27044129  0.11528762     0.29200
C1637       C  0.18880255  0.26511401  0.13929798    -0.24700
C1638       C  0.17891234  0.26727377  0.16809321    -0.24000
C1639       C  0.15159836  0.27624745  0.17273216     0.40600
C1640       C  0.13408737  0.28114994  0.14868968    -0.26500
O1641       O  0.18116238  0.26712869  0.08734298    -0.58300
H1642       H  0.20976991  0.25817381  0.13542648     0.16200
O1643       O  0.14108735  0.27763548  0.20053314    -0.59800
H1644       H  0.11266305  0.28648968  0.15240585     0.14700
H1645       H  0.08960438  0.33647916  0.03982305     0.46500
H1646       H  0.17695378  0.24747565  0.08199851     0.41900
H1647       H  0.14285716  0.29754976  0.20637601     0.45400
H1648       H  0.11958940  0.22088272  0.10272804     0.36900
C1649       C  0.23268849  0.11637766  0.04578189    -0.27400
C1650       C  0.25249078  0.10825231  0.06684726     0.02200
C1651       C  0.26486005  0.08165413  0.06557825     0.30300
C1652       C  0.25672758  0.06302906  0.04376594    -0.19200
C1653       C  0.23623979  0.07071279  0.02324827    -0.28600
C1654       C  0.22458159  0.09770793  0.02381888     0.44300
C1655       C  0.25723370  0.12610791  0.09233118     0.05500
O1656       O  0.28339441  0.07307939  0.08676632    -0.57100
H1657       H  0.26576439  0.04217592  0.04334356     0.18500
O1658       O  0.20429492  0.10531491  0.00411081    -0.63800
H1659       H  0.22287800  0.13682348  0.04705131     0.16900
C1660       C  0.28115409  0.14216423  0.09517912     0.29200
C1661       C  0.28415360  0.16001070  0.11925199    -0.24700
C1662       C  0.26342539  0.16183744  0.14054785    -0.24000
C1663       C  0.24010977  0.14450574  0.13817451     0.40600
C1664       C  0.23721104  0.12681935  0.11411823    -0.26500
O1665       O  0.30090590  0.14157442  0.07385905    -0.58300
H1666       H  0.30213575  0.17325314  0.12057363     0.16200
O1667       O  0.22015415  0.14452969  0.15931424    -0.59800
H1668       H  0.21905745  0.11385372  0.11221286     0.14700
H1669       H  0.21333023  0.11796947  0.98992052     0.46500
H1670       H  0.31528029  0.12840494  0.08130421     0.41900
H1671       H  0.20465922  0.15575644  0.15094007     0.45400
H1672       H  0.30178257  0.07610617  0.07809733     0.36900
C1673       C  0.11616927  0.82142180  0.24974533    -0.27400
C1674       C  0.12672281  0.84847289  0.25298390     0.02200
C1675       C  0.15531958  0.85235567  0.25451945     0.30300
C1676       C  0.17308054  0.82937415  0.25153579    -0.19200
C1677       C  0.16269622  0.80232510  0.24660543    -0.28600
C1678       C  0.13388763  0.79841242  0.24631816     0.44300
C1679       C  0.10774587  0.87268594  0.25222913     0.05500
O1680       O  0.16599327  0.87855191  0.25905561    -0.57100
H1681       H  0.19508679  0.83290598  0.25242025     0.18500
O1682       O  0.12274815  0.77247807  0.24158321    -0.63800
H1683       H  0.09409863  0.81832353  0.24851900     0.16900
C1684       C  0.10814414  0.89157046  0.22843368     0.29200
C1685       C  0.08933846  0.91384159  0.22721453    -0.24700
C1686       C  0.06973175  0.91721507  0.24928202    -0.24000
C1687       C  0.06922280  0.89831789  0.27303496     0.40600
C1688       C  0.08825346  0.87617874  0.27443497    -0.26500
O1689       O  0.12634670  0.88794117  0.20588482    -0.58300
H1690       H  0.08951528  0.92807465  0.20864315     0.16200
O1691       O  0.05025953  0.90149915  0.29493704    -0.59800
H1692       H  0.08769021  0.86160066  0.29269114     0.14700
H1693       H  0.11970723  0.77134124  0.22004577     0.46500
H1694       H  0.11757716  0.87412047  0.19259643     0.41900
H1695       H  0.03534027  0.88815766  0.29011815     0.45400
H1696       H  0.17339916  0.88443926  0.23980839     0.36900
C1697       C  0.90081285  0.88138047  0.26019321    -0.27400
C1698       C  0.88745280  0.87791066  0.23294446     0.02200
C1699       C  0.89452976  0.89521698  0.20914819     0.30300
C1700       C  0.91445164  0.91590035  0.21291980    -0.19200
C1701       C  0.92772115  0.91929365  0.24007586    -0.28600
C1702       C  0.92101851  0.90183906  0.26379054     0.44300
C1703       C  0.86473561  0.85766984  0.23014890     0.05500
O1704       O  0.88105725  0.89298173  0.18262928    -0.57100
H1705       H  0.91965830  0.92929962  0.19458871     0.18500
O1706       O  0.93430026  0.90447329  0.29035638    -0.63800
H1707       H  0.89548178  0.86822291  0.27866945     0.16900
C1708       C  0.86540277  0.83591496  0.20937968     0.29200
C1709       C  0.84261914  0.81832410  0.20600706    -0.24700
C1710       C  0.81888572  0.82213388  0.22311274    -0.24000
C1711       C  0.81890686  0.84341619  0.24474960     0.40600
C1712       C  0.84162722  0.86092282  0.24797199    -0.26500
O1713       O  0.88856343  0.83123867  0.19298358    -0.58300
H1714       H  0.84348972  0.80191371  0.18963210     0.16200
O1715       O  0.79671470  0.84776700  0.26262203    -0.59800
H1716       H  0.84097607  0.87754665  0.26414333     0.14700
H1717       H  0.92401764  0.91934733  0.30089751     0.46500
H1718       H  0.88296824  0.83495278  0.17231992     0.41900
H1719       H  0.80020178  0.83566848  0.28002825     0.45400
H1720       H  0.89508754  0.88601472  0.16867343     0.36900
C1721       C  0.84042145  0.12151446  0.24871578    -0.27400
C1722       C  0.86618549  0.12774889  0.23717008     0.02200
C1723       C  0.87030429  0.15348314  0.22293599     0.30300
C1724       C  0.84842637  0.17260617  0.21998026    -0.19200
C1725       C  0.82221899  0.16626068  0.23100651    -0.28600
C1726       C  0.81844984  0.14037478  0.24561830     0.44300
C1727       C  0.88818659  0.10650178  0.23900178     0.05500
O1728       O  0.89545598  0.15984557  0.21134321    -0.57100
H1729       H  0.85188893  0.19218970  0.20857312     0.18500
O1730       O  0.79352426  0.13334691  0.25735436    -0.63800
H1731       H  0.83721722  0.10166896  0.25973767     0.16900
C1732       C  0.90339652  0.10247368  0.26512459     0.29200
C1733       C  0.92352113  0.08134176  0.26666573    -0.24700
C1734       C  0.92809494  0.06382792  0.24249572    -0.24000
C1735       C  0.91257994  0.06763216  0.21654696     0.40600
C1736       C  0.89287500  0.08907580  0.21482685    -0.26500
O1737       O  0.89897877  0.11936703  0.28897544    -0.58300
H1738       H  0.93551552  0.07852538  0.28666727     0.16200
O1739       O  0.91699340  0.05082359  0.19263133    -0.59800
H1740       H  0.88098263  0.09193506  0.19475685     0.14700
H1741       H  0.78463465  0.12112113  0.24250160     0.46500
H1742       H  0.88573330  0.10905097  0.30131595     0.41900
H1743       H  0.90447729  0.03471148  0.19521849     0.45400
H1744       H  0.90654695  0.16697030  0.22809879     0.36900
C1745       C  0.11086490  0.08021344  0.21030224    -0.27400
C1746       C  0.11183761  0.10319636  0.22941655     0.02200
C1747       C  0.09263071  0.10531869  0.25229279     0.30300
C1748       C  0.07264692  0.08475019  0.25570399    -0.19200
C1749       C  0.07137461  0.06198349  0.23636432    -0.28600
C1750       C  0.09067240  0.05972217  0.21357450     0.44300
C1751       C  0.13289470  0.12501443  0.22577515     0.05500
O1752       O  0.09327145  0.12745764  0.27144820    -0.57100
H1753       H  0.05795289  0.08661339  0.27336010     0.18500
O1754       O  0.08982422  0.03764703  0.19435009    -0.63800
H1755       H  0.12551128  0.07841353  0.19260018     0.16900
C1756       C  0.16108070  0.11877977  0.22955634     0.29200
C1757       C  0.18028419  0.14051098  0.23024303    -0.24700
C1758       C  0.17167692  0.16854866  0.22693392    -0.24000
C1759       C  0.14360897  0.17442330  0.22088681     0.40600
C1760       C  0.12448031  0.15276349  0.22066485    -0.26500
O1761       O  0.16979913  0.09174689  0.23449217    -0.58300
H1762       H  0.20178836  0.13548145  0.23434736     0.16200
O1763       O  0.13452391  0.20127567  0.21547359    -0.59800
H1764       H  0.10286886  0.15768107  0.21704925     0.14700
H1765       H  0.07579459  0.04302336  0.17933912     0.46500
H1766       H  0.17587937  0.08478853  0.21508248     0.41900
H1767       H  0.13862085  0.20479546  0.19449402     0.45400
H1768       H  0.10744517  0.12231472  0.28639340     0.36900
loop_ 
_geom_bond_atom_site_label_1 
_geom_bond_atom_site_label_2 
_geom_bond_distance 
_geom_bond_site_symmetry_2 
_ccdc_geom_bond_type 
N1            C6   1.351       .  A
N1            C5   1.350   1_565  A
N1           H33   1.038       .  S
N2            C9   1.350       .  A
N2           C10   1.350   1_655  A
N3            C8   1.352       .  A
N3            C7   1.351   1_565  A
N3           H34   1.040       .  S
N4           C11   1.348       .  A
N4           C12   1.347   1_655  A
C5           C13   1.388       .  A
C5           C21   1.412       .  A
C6           C22   1.411       .  A
C6           C14   1.386       .  A
C7           C15   1.386       .  A
C7           C24   1.410       .  A
C8           C23   1.411       .  A
C8           C16   1.387       .  A
C9           C21   1.410       .  A
C9           C17   1.386       .  A
C10          C24   1.411       .  A
C10          C18   1.386       .  A
C11          C19   1.386       .  A
C11          C22   1.407       .  A
C12          C20   1.386       .  A
C12          C23   1.406       .  A
C13          C14   1.377   1_545  A
C13          H25   1.082       .  S
C14          H26   1.082       .  S
C15          C16   1.376   1_545  A
C15          H27   1.082       .  S
C16          H28   1.082       .  S
C17          C18   1.372   1_655  A
C17          H29   1.082       .  S
C18          H30   1.082       .  S
C19          C20   1.371   1_655  A
C19          H31   1.082       .  S
C20          H32   1.082       .  S
C21        C1734   1.477       .  S
C22        C1701   1.476       .  S
C23        C1686   1.477       .  S
C24        C1749   1.483       .  S
O35         Ni41   1.925       .  S
O35          C56   1.271       .  A
O36         Ni59   1.877       .  S
O36          C45   1.264       .  A
O37         Ni41   1.917       .  S
O37         Ni59   1.897       .  S
O37         Ni53   1.928       .  S
O37          H60   0.966       .  S
C38        C1605   1.475       .  S
C38          O55   1.269       .  A
C38          O47   1.275       .  A
O39         Ni58   1.931       .  S
O39          C45   1.273       .  A
O40         Ni58   1.909       .  S
O40          C42   1.270       .  A
Ni41         O44   1.934       .  S
Ni41         O46   1.906       .  S
C42        C1581   1.481       .  S
C42          O52   1.272       .  A
O43         Ni59   1.902       .  S
O43          C49   1.264       .  A
O44          C49   1.270       .  A
C45        C1662   1.470       .  S
O46          C48   1.275       .  A
O47         Ni58   1.930       .  S
C48        C1638   1.469       .  S
C48          O54   1.279       .  A
C49        C1758   1.479       .  S
H50          O51   0.966       .  S
O51         Ni59   1.891       .  S
O51         Ni53   1.888       .  S
O51         Ni58   1.909       .  S
O52         Ni53   1.928       .  S
Ni53         O57   1.888       .  S
Ni53         O55   1.897       .  S
O54         Ni59   1.939       .  S
C56        C1557   1.483       .  S
C56          O57   1.264       .  A
O61         Ni67   1.923       .  S
O61          C82   1.269       .  A
O62         Ni85   1.901       .  S
O62          C71   1.267       .  A
O63         Ni67   1.923       .  S
O63         Ni85   1.912       .  S
O63         Ni79   1.903       .  S
O63          H86   0.965       .  S
C64        C1485   1.480       .  S
C64          O81   1.265       .  A
C64          O73   1.275       .  A
O65         Ni84   1.938       .  S
O65          C71   1.274       .  A
O66         Ni84   1.912       .  S
O66          C68   1.271       .  A
Ni67         O70   1.926       .  S
Ni67         O72   1.909       .  S
C68        C1470   1.500       .  S
C68          O78   1.279       .  A
O69         Ni85   1.903       .  S
O69          C75   1.270       .  A
O70          C75   1.273       .  A
C71        C1533   1.493       .  S
O72          C74   1.267       .  A
O73         Ni84   1.941       .  S
C74        C1509   1.483       .  S
C74          O80   1.276       .  A
C75        C1725   1.482       .  S
H76          O77   0.967       .  S
O77         Ni85   1.913       .  S
O77         Ni79   1.912       .  S
O77         Ni84   1.928       .  S
O78         Ni79   1.953       .  S
Ni79         O83   1.905       .  S
Ni79         O81   1.890       .  S
O80         Ni85   1.949       .  S
C82        C1437   1.489       .  S
C82          O83   1.267       .  A
O87         Ni93   1.921       .  S
O87         C108   1.269       .  A
O88        Ni111   1.895       .  S
O88          C97   1.267       .  A
O89         Ni93   1.907       .  S
O89        Ni111   1.901       .  S
O89        Ni105   1.914       .  S
O89         H112   0.966       .  S
C90        C1710   1.488       .  S
C90         O107   1.280       .  A
C90          O99   1.277       .  A
O91        Ni110   1.927       .  S
O91          C97   1.272       .  A
O92        Ni110   1.906       .  S
O92          C94   1.268       .  A
Ni93         O96   1.923       .  S
Ni93         O98   1.902       .  S
C94        C1422   1.496       .  S
C94         O104   1.273       .  A
O95        Ni111   1.914       .  S
O95         C101   1.275       .  A
O96         C101   1.276       .  A
C97        C1341   1.477       .  S
O98         C100   1.267       .  A
O99        Ni110   1.919       .  S
C100       C1317   1.493       .  S
C100        O106   1.274       .  A
C101       C1365   1.488       .  S
H102        O103   0.966       .  S
O103       Ni111   1.903       .  S
O103       Ni105   1.891       .  S
O103       Ni110   1.897       .  S
O104       Ni105   1.935       .  S
Ni105       O109   1.895       .  S
Ni105       O107   1.923       .  S
O106       Ni111   1.936       .  S
C108       C1398   1.476       .  S
C108        O109   1.266       .  A
O113       Ni119   1.927       .  S
O113        C134   1.271       .  A
O114       Ni137   1.885       .  S
O114        C123   1.266       .  A
O115       Ni119   1.923       .  S
O115       Ni137   1.902       .  S
O115       Ni131   1.908       .  S
O115        H138   0.966       .  S
C116       C1677   1.481       .  S
C116        O133   1.264       .  A
C116        O125   1.273       .  A
O117       Ni136   1.929       .  S
O117        C123   1.272       .  A
O118       Ni136   1.907       .  S
O118        C120   1.270       .  A
Ni119       O122   1.930       .  S
Ni119       O124   1.900       .  S
C120       C1293   1.491       .  S
C120        O130   1.277       .  A
O121       Ni137   1.898       .  S
O121        C127   1.267       .  A
O122        C127   1.272       .  A
C123       C1221   1.475       .  S
O124        C126   1.269       .  A
O125       Ni136   1.941       .  S
C126       C1206   1.491       .  S
C126        O132   1.278       .  A
C127       C1254   1.480       .  S
H128        O129   0.966       .  S
O129       Ni137   1.909       .  S
O129       Ni131   1.894       .  S
O129       Ni136   1.925       .  S
O130       Ni131   1.944       .  S
Ni131       O135   1.877       .  S
Ni131       O133   1.890       .  S
O132       Ni137   1.948       .  S
C134       C1278   1.474       .  S
C134        O135   1.260       .  A
N139        C144   1.349       .  A
N139        C143   1.349   1_556  A
N139        H171   1.042       .  S
N140        C147   1.345       .  A
N140        C148   1.343   1_565  A
N141        C146   1.349       .  A
N141        C145   1.351       .  A
N141        H172   1.042       .  S
N142        C149   1.348       .  A
N142        C150   1.348       .  A
C143        C151   1.388       .  A
C143        C159   1.409       .  A
C144        C160   1.407       .  A
C144        C152   1.386       .  A
C145        C153   1.388       .  A
C145        C162   1.408   1_556  A
C146        C161   1.407       .  A
C146        C154   1.386       .  A
C147        C159   1.401       .  A
C147        C155   1.385       .  A
C148        C162   1.403       .  A
C148        C156   1.388       .  A
C149        C157   1.387       .  A
C149        C160   1.409       .  A
C150        C158   1.384       .  A
C150        C161   1.403   1_565  A
C151        C152   1.373   1_554  A
C151        H163   1.082       .  S
C152        H164   1.082       .  S
C153        C154   1.374       .  A
C153        H165   1.082       .  S
C154        H166   1.082       .  S
C155        C156   1.373   1_565  A
C155        H167   1.082       .  S
C156        H168   1.083       .  S
C157        C158   1.374       .  A
C157        H169   1.082       .  S
C158        H170   1.082       .  S
C159       C1269   1.471       .  S
C160       C1173   1.480       .  S
C161       C1149   1.473       .  S
C162       C1653   1.472       .  S
N173        C178   1.356       .  A
N173        C177   1.352       .  A
N173        H205   1.040       .  S
N174        C181   1.351       .  A
N174        C182   1.352       .  A
N175        C180   1.351       .  A
N175        C179   1.353       .  A
N175        H206   1.039       .  S
N176        C183   1.351   1_455  A
N176        C184   1.350       .  A
C177        C185   1.387       .  A
C177        C193   1.416       .  A
C178        C194   1.417   1_556  A
C178        C186   1.386       .  A
C179        C187   1.387       .  A
C179        C196   1.413       .  A
C180        C195   1.412   1_556  A
C180        C188   1.388       .  A
C181        C193   1.414   1_455  A
C181        C189   1.387       .  A
C182        C196   1.413       .  A
C182        C190   1.385       .  A
C183        C191   1.386   1_655  A
C183        C194   1.412       .  A
C184        C192   1.386       .  A
C184        C195   1.411       .  A
C185        C186   1.376       .  A
C185        H197   1.082       .  S
C186        H198   1.082       .  S
C187        C188   1.376       .  A
C187        H199   1.082       .  S
C188        H200   1.082   1_556  S
C189        C190   1.373       .  A
C189        H201   1.082       .  S
C190        H202   1.082       .  S
C191        C192   1.372       .  A
C191        H203   1.082   1_455  S
C192        H204   1.082       .  S
C193       C1110   1.488       .  S
C194       C1542   1.495       .  S
C195       C1629   1.478       .  S
C196       C1134   1.487       .  S
N207        C212   1.354       .  A
N207        C211   1.355       .  A
N207        H239   1.040       .  S
N208        C215   1.351       .  A
N208        C216   1.352   1_545  A
N209        C214   1.352       .  A
N209        C213   1.353       .  A
N209        H240   1.040       .  S
N210        C217   1.354       .  A
N210        C218   1.354   1_545  A
C211        C219   1.386       .  A
C211        C227   1.416       .  A
C212        C228   1.420   1_556  A
C212        C220   1.388       .  A
C213        C221   1.387       .  A
C213        C230   1.414       .  A
C214        C229   1.412   1_556  A
C214        C222   1.387       .  A
C215        C227   1.413       .  A
C215        C223   1.386       .  A
C216        C230   1.414       .  A
C216        C224   1.386       .  A
C217        C225   1.387       .  A
C217        C228   1.420       .  A
C218        C226   1.385       .  A
C218        C229   1.415       .  A
C219        C220   1.378       .  A
C219        H231   1.082       .  S
C220        H232   1.082       .  S
C221        C222   1.377       .  A
C221        H233   1.082       .  S
C222        H234   1.082       .  S
C223        C224   1.374   1_545  A
C223        H235   1.082       .  S
C224        H236   1.082       .  S
C225        C226   1.376   1_545  A
C225        H237   1.082       .  S
C226        H238   1.082       .  S
C227       C1077   1.490       .  S
C228       C1518   1.501       .  S
C229       C1413   1.489       .  S
C230       C1053   1.491       .  S
N241        C246   1.354       .  A
N241        C245   1.350       .  A
N241        H273   1.040       .  S
N242        C249   1.346       .  A
N242        C250   1.349   1_455  A
N243        C248   1.347       .  A
N243        C247   1.353       .  A
N243        H274   1.041       .  S
N244        C251   1.350       .  A
N244        C252   1.348   1_455  A
C245        C253   1.388       .  A
C245        C261   1.413       .  A
C246        C262   1.412   1_556  A
C246        C254   1.386       .  A
C247        C255   1.386       .  A
C247        C264   1.412       .  A
C248        C263   1.411   1_556  A
C248        C256   1.388       .  A
C249        C261   1.408       .  A
C249        C257   1.388       .  A
C250        C264   1.407       .  A
C250        C258   1.385       .  A
C251        C259   1.384       .  A
C251        C262   1.408       .  A
C252        C260   1.388       .  A
C252        C263   1.411       .  A
C253        C254   1.378       .  A
C253        H265   1.082       .  S
C254        H266   1.082       .  S
C255        C256   1.376       .  A
C255        H267   1.082       .  S
C256        H268   1.082       .  S
C257        C258   1.372   1_455  A
C257        H269   1.082       .  S
C258        H270   1.082       .  S
C259        C260   1.373   1_455  A
C259        H271   1.082       .  S
C260        H272   1.082       .  S
C261       C1005   1.477       .  S
C262       C1302   1.485       .  S
C263       C1389   1.478       .  S
C264       C1029   1.488       .  S
O275       Ni281   1.927       .  S
O275        C296   1.271       .  A
O276       Ni299   1.880       .  S
O276        C285   1.260       .  A
O277       Ni281   1.927       .  S
O277       Ni299   1.899       .  S
O277       Ni293   1.906       .  S
O277        H300   0.966       .  S
C278       C1014   1.481       .  S
C278        O295   1.267       .  A
C278        O287   1.274       .  A
O279       Ni298   1.930       .  S
O279        C285   1.270       .  A
O280       Ni298   1.908       .  S
O280        C282   1.269       .  A
Ni281       O284   1.937       .  S
Ni281       O286   1.906       .  S
C282        C990   1.503       .  S
C282        O292   1.278       .  A
O283       Ni299   1.880       .  S
O283        C289   1.263       .  A
O284        C289   1.275       .  A
C285        C909   1.478       .  S
O286        C288   1.268       .  A
O287       Ni298   1.927       .  S
C288        C957   1.490       .  S
C288        O294   1.276       .  A
C289        C942   1.479       .  S
H290        O291   0.967       .  S
O291       Ni299   1.900       .  S
O291       Ni293   1.903       .  S
O291       Ni298   1.925       .  S
O292       Ni293   1.954       .  S
Ni293       O297   1.884       .  S
Ni293       O295   1.894       .  S
O294       Ni299   1.950       .  S
C296       C1182   1.478       .  S
C296        O297   1.264       .  A
N301        C306   1.352       .  A
N301        C305   1.357   1_565  A
N301        H333   1.039       .  S
N302        C309   1.355   1_455  A
N302        C310   1.351       .  A
N303        C308   1.357       .  A
N303        C307   1.353   1_565  A
N303        H334   1.039       .  S
N304        C311   1.353   1_455  A
N304        C312   1.355       .  A
C305        C313   1.385       .  A
C305        C321   1.418       .  A
C306        C322   1.419       .  A
C306        C314   1.389       .  A
C307        C315   1.387       .  A
C307        C324   1.417       .  A
C308        C323   1.420       .  A
C308        C316   1.387       .  A
C309        C321   1.414       .  A
C309        C317   1.384   1_655  A
C310        C324   1.416       .  A
C310        C318   1.388       .  A
C311        C319   1.387   1_655  A
C311        C322   1.418       .  A
C312        C320   1.386       .  A
C312        C323   1.419       .  A
C313        C314   1.377   1_545  A
C313        H325   1.082       .  S
C314        H326   1.082       .  S
C315        C316   1.377   1_545  A
C315        H327   1.082       .  S
C316        H328   1.082       .  S
C317        C318   1.373       .  A
C317        H329   1.082   1_455  S
C318        H330   1.082       .  S
C319        C320   1.376       .  A
C319        H331   1.082   1_455  S
C320        H332   1.082       .  S
C321        C861   1.500       .  S
C322        C837   1.489       .  S
C323        C981   1.503       .  S
C324        C885   1.486       .  S
O335       Ni341   1.936       .  S
O335        C356   1.273       .  A
O336       Ni359   1.886       .  S
O336        C345   1.263       .  A
O337       Ni341   1.928       .  S
O337       Ni359   1.898       .  S
O337       Ni353   1.915       .  S
O337        H360   0.966       .  S
C338        C894   1.477       .  S
C338        O355   1.267       .  A
C338        O347   1.273       .  A
O339       Ni358   1.934       .  S
O339        C345   1.273       .  A
O340       Ni358   1.907       .  S
O340        C342   1.273       .  A
Ni341       O344   1.946       .  S
Ni341       O346   1.906       .  S
C342       C1125   1.493       .  S
C342        O352   1.278       .  A
O343       Ni359   1.897       .  S
O343        C349   1.265       .  A
O344        C349   1.275       .  A
C345        C789   1.477       .  S
O346        C348   1.271       .  A
O347       Ni358   1.938       .  S
C348        C774   1.492       .  S
C348        O354   1.277       .  A
C349        C813   1.488       .  S
H350        O351   0.966       .  S
O351       Ni359   1.915       .  S
O351       Ni353   1.902       .  S
O351       Ni358   1.926       .  S
O352       Ni353   1.945       .  S
Ni353       O357   1.882       .  S
Ni353       O355   1.901       .  S
O354       Ni359   1.944       .  S
C356       C1158   1.468       .  S
C356        O357   1.264       .  A
O361       Ni367   1.942       .  S
O361        C382   1.275       .  A
O362       Ni385   1.897       .  S
O362        C371   1.264       .  A
O363       Ni367   1.923       .  S
O363       Ni385   1.904       .  S
O363       Ni379   1.912       .  S
O363        H386   0.966       .  S
C364        C870   1.503       .  S
C364        O381   1.273       .  A
C364        O373   1.275       .  A
O365       Ni384   1.944       .  S
O365        C371   1.275       .  A
O366       Ni384   1.910       .  S
O366        C368   1.272       .  A
Ni367       O370   1.940       .  S
Ni367       O372   1.915       .  S
C368       C1086   1.489       .  S
C368        O378   1.275       .  A
O369       Ni385   1.913       .  S
O369        C375   1.273       .  A
O370        C375   1.278       .  A
C371        C726   1.490       .  S
O372        C374   1.270       .  A
O373       Ni384   1.937       .  S
C374        C702   1.495       .  S
C374        O380   1.273       .  A
C375        C741   1.497       .  S
H376        O377   0.966       .  S
O377       Ni385   1.922       .  S
O377       Ni379   1.915       .  S
O377       Ni384   1.927       .  S
O378       Ni379   1.938       .  S
Ni379       O383   1.897       .  S
Ni379       O381   1.923       .  S
O380       Ni385   1.932       .  S
C382       C1101   1.485       .  S
C382        O383   1.266       .  A
O387       Ni393   1.944       .  S
O387        C408   1.275       .  A
O388       Ni411   1.897       .  S
O388        C397   1.263       .  A
O389       Ni393   1.921       .  S
O389       Ni411   1.903       .  S
O389       Ni405   1.909       .  S
O389        H412   0.966       .  S
C390        C669   1.491       .  S
C390        O407   1.275       .  A
C390        O399   1.275       .  A
O391       Ni410   1.935       .  S
O391        C397   1.272       .  A
O392       Ni410   1.913       .  S
O392        C394   1.270       .  A
Ni393       O396   1.947       .  S
Ni393       O398   1.917       .  S
C394        C645   1.498       .  S
C394        O404   1.275       .  A
O395       Ni411   1.896       .  S
O395        C401   1.271       .  A
O396        C401   1.279       .  A
C397       C1038   1.488       .  S
O398        C400   1.269       .  A
O399       Ni410   1.924       .  S
C400       C1062   1.480       .  S
C400        O406   1.271       .  A
C401        C846   1.489       .  S
H402        O403   0.967       .  S
O403       Ni411   1.908       .  S
O403       Ni405   1.908       .  S
O403       Ni410   1.919       .  S
O404       Ni405   1.939       .  S
Ni405       O409   1.893       .  S
Ni405       O407   1.917       .  S
O406       Ni411   1.935       .  S
C408        C630   1.486       .  S
C408        O409   1.267       .  A
N413        C418   1.356       .  A
N413        C417   1.354       .  A
N413        H445   1.038       .  S
N414        C421   1.353       .  A
N414        C422   1.355       .  A
N415        C420   1.354       .  A
N415        C419   1.354       .  A
N415        H446   1.036       .  S
N416        C423   1.353       .  A
N416        C424   1.352       .  A
C417        C425   1.387       .  A
C417        C433   1.418       .  A
C418        C434   1.419       .  A
C418        C426   1.386       .  A
C419        C427   1.387       .  A
C419        C436   1.417       .  A
C420        C435   1.417       .  A
C420        C428   1.388       .  A
C421        C433   1.418       .  A
C421        C429   1.387       .  A
C422        C436   1.416       .  A
C422        C430   1.386       .  A
C423        C431   1.387       .  A
C423        C434   1.417       .  A
C424        C432   1.386       .  A
C424        C435   1.413       .  A
C425        C426   1.375       .  A
C425        H437   1.082       .  S
C426        H438   1.082       .  S
C427        C428   1.376       .  A
C427        H439   1.082       .  S
C428        H440   1.082       .  S
C429        C430   1.372       .  A
C429        H441   1.082       .  S
C430        H442   1.082       .  S
C431        C432   1.371       .  A
C431        H443   1.082       .  S
C432        H444   1.082       .  S
C433        C822   1.488       .  S
C434        C966   1.498       .  S
C435        C678   1.484       .  S
C436        C750   1.491       .  S
N447        C452   1.352       .  A
N447        C451   1.352       .  A
N447        H479   1.037       .  S
N448        C455   1.348       .  A
N448        C456   1.350       .  A
N449        C454   1.352       .  A
N449        C453   1.350       .  A
N449        H480   1.037       .  S
N450        C457   1.349       .  A
N450        C458   1.351       .  A
C451        C459   1.387       .  A
C451        C467   1.412       .  A
C452        C468   1.413       .  A
C452        C460   1.388       .  A
C453        C461   1.386       .  A
C453        C470   1.411       .  A
C454        C469   1.413       .  A
C454        C462   1.387       .  A
C455        C467   1.409       .  A
C455        C463   1.386       .  A
C456        C470   1.409       .  A
C456        C464   1.386       .  A
C457        C465   1.386       .  A
C457        C468   1.410       .  A
C458        C466   1.386       .  A
C458        C469   1.412       .  A
C459        C460   1.371       .  A
C459        H471   1.082       .  S
C460        H472   1.082       .  S
C461        C462   1.375       .  A
C461        H473   1.082       .  S
C462        H474   1.082       .  S
C463        C464   1.373       .  A
C463        H475   1.083       .  S
C464        H476   1.082       .  S
C465        C466   1.372       .  A
C465        H477   1.082       .  S
C466        H478   1.082       .  S
C467       C1614   1.475       .  S
C468       C1245   1.477       .  S
C469       C1374   1.482       .  S
C470       C1494   1.477       .  S
N481        C486   1.356       .  A
N481        C485   1.354       .  A
N481        H513   1.036       .  S
N482        C489   1.354       .  A
N482        C490   1.354       .  A
N483        C488   1.356       .  A
N483        C487   1.359       .  A
N483        H514   1.037       .  S
N484        C491   1.356       .  A
N484        C492   1.354       .  A
C485        C493   1.388       .  A
C485        C501   1.419       .  A
C486        C502   1.419       .  A
C486        C494   1.387       .  A
C487        C495   1.387       .  A
C487        C504   1.422       .  A
C488        C503   1.422       .  A
C488        C496   1.388       .  A
C489        C501   1.418       .  A
C489        C497   1.386       .  A
C490        C504   1.418       .  A
C490        C498   1.386       .  A
C491        C499   1.385       .  A
C491        C502   1.419       .  A
C492        C500   1.387       .  A
C492        C503   1.420       .  A
C493        C494   1.375       .  A
C493        H505   1.082       .  S
C494        H506   1.082       .  S
C495        C496   1.376       .  A
C495        H507   1.082       .  S
C496        H508   1.082       .  S
C497        C498   1.373       .  A
C497        H509   1.082       .  S
C498        H510   1.082       .  S
C499        C500   1.373       .  A
C499        H511   1.082       .  S
C500        H512   1.082       .  S
C501       C1326   1.488       .  S
C502        C654   1.497       .  S
C503        C693   1.495       .  S
C504       C1461   1.501       .  S
N515        C520   1.354       .  A
N515        C519   1.349       .  A
N515        H547   1.039       .  S
N516        C523   1.350       .  A
N516        C524   1.351       .  A
N517        C522   1.351       .  A
N517        C521   1.353       .  A
N517        H548   1.039       .  S
N518        C525   1.349       .  A
N518        C526   1.347       .  A
C519        C527   1.388       .  A
C519        C535   1.413       .  A
C520        C536   1.412       .  A
C520        C528   1.386       .  A
C521        C529   1.387       .  A
C521        C538   1.413       .  A
C522        C537   1.413       .  A
C522        C530   1.387       .  A
C523        C535   1.411       .  A
C523        C531   1.387       .  A
C524        C538   1.411       .  A
C524        C532   1.385       .  A
C525        C533   1.385       .  A
C525        C536   1.406       .  A
C526        C534   1.387       .  A
C526        C537   1.408       .  A
C527        C528   1.376       .  A
C527        H539   1.082       .  S
C528        H540   1.082       .  S
C529        C530   1.377       .  A
C529        H541   1.082       .  S
C530        H542   1.082       .  S
C531        C532   1.372       .  A
C531        H543   1.082       .  S
C532        H544   1.082       .  S
C533        C534   1.370       .  A
C533        H545   1.082       .  S
C534        H546   1.082       .  S
C535       C1350   1.480       .  S
C536        C621   1.484       .  S
C537        C933   1.475       .  S
C538       C1197   1.486       .  S
N549        C554   1.350       .  A
N549        C553   1.353       .  A
N549        H581   1.041       .  S
N550        C557   1.344       .  A
N550        C558   1.346       .  A
N551        C556   1.348       .  A
N551        C555   1.350       .  A
N551        H582   1.041       .  S
N552        C559   1.348       .  A
N552        C560   1.349       .  A
C553        C561   1.387       .  A
C553        C569   1.412       .  A
C554        C570   1.411       .  A
C554        C562   1.387       .  A
C555        C563   1.388       .  A
C555        C572   1.408       .  A
C556        C571   1.405       .  A
C556        C564   1.386       .  A
C557        C569   1.405       .  A
C557        C565   1.389       .  A
C558        C572   1.401       .  A
C558        C566   1.384       .  A
C559        C567   1.385       .  A
C559        C570   1.406       .  A
C560        C568   1.387       .  A
C560        C571   1.409       .  A
C561        C562   1.375       .  A
C561        H573   1.082       .  S
C562        H574   1.082       .  S
C563        C564   1.371       .  A
C563        H575   1.082       .  S
C564        H576   1.082       .  S
C565        C566   1.373       .  A
C565        H577   1.082       .  S
C566        H578   1.082       .  S
C567        C568   1.376       .  A
C567        H579   1.082       .  S
C568        H580   1.082       .  S
C569       C1566   1.475       .  S
C570        C798   1.478       .  S
C571        C918   1.479       .  S
C572       C1230   1.472       .  S
N583        C588   1.354       .  A
N583        C587   1.352       .  A
N583        H615   1.040       .  S
N584        C591   1.351       .  A
N584        C592   1.353       .  A
N585        C590   1.353       .  A
N585        C589   1.354       .  A
N585        H616   1.040       .  S
N586        C593   1.351       .  A
N586        C594   1.351       .  A
C587        C595   1.387       .  A
C587        C603   1.414       .  A
C588        C604   1.413       .  A
C588        C596   1.387       .  A
C589        C597   1.386       .  A
C589        C606   1.414       .  A
C590        C605   1.416       .  A
C590        C598   1.388       .  A
C591        C603   1.413       .  A
C591        C599   1.386       .  A
C592        C606   1.414       .  A
C592        C600   1.386       .  A
C593        C601   1.385       .  A
C593        C604   1.410       .  A
C594        C602   1.387       .  A
C594        C605   1.414       .  A
C595        C596   1.376       .  A
C595        H607   1.082       .  S
C596        H608   1.082       .  S
C597        C598   1.376       .  A
C597        H609   1.082       .  S
C598        H610   1.082       .  S
C599        C600   1.374       .  A
C599        H611   1.082       .  S
C600        H612   1.082       .  S
C601        C602   1.372       .  A
C601        H613   1.082       .  S
C602        H614   1.082       .  S
C603        C765   1.484       .  S
C604       C1590   1.483       .  S
C605       C1446   1.490       .  S
C606        C717   1.493       .  S
C617        C618   1.405       .  A
C617        C622   1.401       .  A
C617        H627   1.083       .  S
C618        C619   1.409       .  A
C618        C623   1.482       .  S
C619        C620   1.400       .  A
C619        O624   1.373       .  S
C620        C621   1.402       .  A
C620        H625   1.084       .  S
C621        C622   1.405       .  A
C622        O626   1.371       .  S
C623        C628   1.406       .  A
C623        C632   1.404       .  A
O624        H640   0.992       .  S
O626        H637   0.992       .  S
C628        C629   1.397       .  A
C628        O633   1.372       .  S
C629        C630   1.407       .  A
C629        H634   1.084       .  S
C630        C631   1.413       .  A
C631        C632   1.403       .  A
C631        O635   1.372       .  S
C632        H636   1.084       .  S
O633        H638   0.992       .  S
O635        H639   0.992       .  S
C641        C642   1.404       .  A
C641        C646   1.405       .  A
C641        H651   1.083       .  S
C642        C643   1.411       .  A
C642        C647   1.497       .  S
C643        C644   1.406       .  A
C643        O648   1.372       .  S
C644        C645   1.409       .  A
C644        H649   1.083       .  S
C645        C646   1.415       .  A
C646        O650   1.372       .  S
C647        C652   1.413       .  A
C647        C656   1.407       .  A
O648        H664   0.992       .  S
O650        H661   0.992       .  S
C652        C653   1.406       .  A
C652        O657   1.371       .  S
C653        C654   1.403       .  A
C653        H658   1.083       .  S
C654        C655   1.408       .  A
C655        C656   1.405       .  A
C655        O659   1.371       .  S
C656        H660   1.083       .  S
O657        H662   0.992       .  S
O659        H663   0.992       .  S
C665        C666   1.399       .  A
C665        C670   1.399       .  A
C665        H675   1.084       .  S
C666        C667   1.406       .  A
C666        C671   1.480       .  S
C667        C668   1.402       .  A
C667        O672   1.372       .  S
C668        C669   1.409       .  A
C668        H673   1.083       .  S
C669        C670   1.416       .  A
C670        O674   1.372       .  S
C671        C676   1.409       .  A
C671        C680   1.403       .  A
O672        H688   0.992       .  S
O674        H685   0.992       .  S
C676        C677   1.399       .  A
C676        O681   1.371       .  S
C677        C678   1.401       .  A
C677        H682   1.083       .  S
C678        C679   1.407       .  A
C679        C680   1.400       .  A
C679        O683   1.371       .  S
C680        H684   1.084       .  S
O681        H686   0.992       .  S
O683        H687   0.992       .  S
C689        C690   1.407       .  A
C689        C694   1.404       .  A
C689        H699   1.083       .  S
C690        C691   1.412       .  A
C690        C695   1.493       .  S
C691        C692   1.404       .  A
C691        O696   1.373       .  S
C692        C693   1.403       .  A
C692        H697   1.084       .  S
C693        C694   1.409       .  A
C694        O698   1.371       .  S
C695        C700   1.410       .  A
C695        C704   1.405       .  A
O696        H712   0.992       .  S
O698        H709   0.992       .  S
C700        C701   1.402       .  A
C700        O705   1.372       .  S
C701        C702   1.409       .  A
C701        H706   1.083       .  S
C702        C703   1.414       .  A
C703        C704   1.406       .  A
C703        O707   1.371       .  S
C704        H708   1.083       .  S
O705        H710   0.992       .  S
O707        H711   0.992       .  S
C713        C714   1.405       .  A
C713        C718   1.401       .  A
C713        H723   1.083       .  S
C714        C715   1.410       .  A
C714        C719   1.488       .  S
C715        C716   1.404       .  A
C715        O720   1.371       .  S
C716        C717   1.405       .  A
C716        H721   1.083       .  S
C717        C718   1.408       .  A
C718        O722   1.372       .  S
C719        C724   1.409       .  A
C719        C728   1.403       .  A
O720        H736   0.992       .  S
O722        H733   0.992       .  S
C724        C725   1.403       .  A
C724        O729   1.372       .  S
C725        C726   1.406       .  A
C725        H730   1.083       .  S
C726        C727   1.416       .  A
C727        C728   1.403       .  A
C727        O731   1.372       .  S
C728        H732   1.084       .  S
O729        H734   0.992       .  S
O731        H735   0.992       .  S
C737        C738   1.403       .  A
C737        C742   1.404       .  A
C737        H747   1.084       .  S
C738        C739   1.407       .  A
C738        C743   1.487       .  S
C739        C740   1.402       .  A
C739        O744   1.372       .  S
C740        C741   1.410       .  A
C740        H745   1.083       .  S
C741        C742   1.417       .  A
C742        O746   1.371       .  S
C743        C748   1.410       .  A
C743        C752   1.405       .  A
O744        H760   0.992       .  S
O746        H757   0.992       .  S
C748        C749   1.404       .  A
C748        O753   1.372       .  S
C749        C750   1.403       .  A
C749        H754   1.083       .  S
C750        C751   1.407       .  A
C751        C752   1.403       .  A
C751        O755   1.371       .  S
C752        H756   1.083       .  S
O753        H758   0.992       .  S
O755        H759   0.992       .  S
C761        C762   1.405       .  A
C761        C766   1.397       .  A
C761        H771   1.084       .  S
C762        C763   1.411       .  A
C762        C767   1.486       .  S
C763        C764   1.405       .  A
C763        O768   1.373       .  S
C764        C765   1.402       .  A
C764        H769   1.083       .  S
C765        C766   1.405       .  A
C766        O770   1.372       .  S
C767        C772   1.409       .  A
C767        C776   1.402       .  A
O768        H784   0.992       .  S
O770        H781   0.992       .  S
C772        C773   1.401       .  A
C772        O777   1.372       .  S
C773        C774   1.409       .  A
C773        H778   1.083       .  S
C774        C775   1.415       .  A
C775        C776   1.400       .  A
C775        O779   1.372       .  S
C776        H780   1.084       .  S
O777        H782   0.992       .  S
O779        H783   0.992       .  S
C785        C786   1.401       .  A
C785        C790   1.397       .  A
C785        H795   1.084       .  S
C786        C787   1.408       .  A
C786        C791   1.477       .  S
C787        C788   1.399       .  A
C787        O792   1.372       .  S
C788        C789   1.404       .  A
C788        H793   1.084       .  S
C789        C790   1.412       .  A
C790        O794   1.371       .  S
C791        C796   1.409       .  A
C791        C800   1.403       .  A
O792        H808   0.992       .  S
O794        H805   0.992       .  S
C796        C797   1.400       .  A
C796        O801   1.371       .  S
C797        C798   1.403       .  A
C797        H802   1.084       .  S
C798        C799   1.404       .  A
C799        C800   1.394       .  A
C799        O803   1.371       .  S
C800        H804   1.084       .  S
O801        H806   0.992       .  S
O803        H807   0.992       .  S
C809        C810   1.401       .  A
C809        C814   1.401       .  A
C809        H819   1.084       .  S
C810        C811   1.404       .  A
C810        C815   1.477       .  S
C811        C812   1.400       .  A
C811        O816   1.372       .  S
C812        C813   1.409       .  A
C812        H817   1.083       .  S
C813        C814   1.414       .  A
C814        O818   1.372       .  S
C815        C820   1.406       .  A
C815        C824   1.403       .  A
O816        H832   0.992       .  S
O818        H829   0.992       .  S
C820        C821   1.401       .  A
C820        O825   1.371       .  S
C821        C822   1.403       .  A
C821        H826   1.083       .  S
C822        C823   1.408       .  A
C823        C824   1.401       .  A
C823        O827   1.372       .  S
C824        H828   1.084       .  S
O825        H830   0.992       .  S
O827        H831   0.992       .  S
C833        C834   1.405       .  A
C833        C838   1.400       .  A
C833        H843   1.083       .  S
C834        C835   1.409       .  A
C834        C839   1.485       .  S
C835        C836   1.401       .  A
C835        O840   1.372       .  S
C836        C837   1.404       .  A
C836        H841   1.084       .  S
C837        C838   1.407       .  A
C838        O842   1.371       .  S
C839        C844   1.406       .  A
C839        C848   1.404       .  A
O840        H856   0.992       .  S
O842        H853   0.992       .  S
C844        C845   1.400       .  A
C844        O849   1.372       .  S
C845        C846   1.408       .  A
C845        H850   1.083       .  S
C846        C847   1.414       .  A
C847        C848   1.402       .  A
C847        O851   1.372       .  S
C848        H852   1.084       .  S
O849        H854   0.992       .  S
O851        H855   0.992       .  S
C857        C858   1.408       .  A
C857        C862   1.404       .  A
C857        H867   1.083       .  S
C858        C859   1.414       .  A
C858        C863   1.503       .  S
C859        C860   1.410       .  A
C859        O864   1.372       .  S
C860        C861   1.405       .  A
C860        H865   1.083       .  S
C861        C862   1.407       .  A
C862        O866   1.371       .  S
C863        C868   1.413       .  A
C863        C872   1.405       .  A
O864        H880   0.992       .  S
O866        H877   0.992       .  S
C868        C869   1.409       .  A
C868        O873   1.371       .  S
C869        C870   1.410       .  A
C869        H874   1.083       .  S
C870        C871   1.416       .  A
C871        C872   1.404       .  A
C871        O875   1.371       .  S
C872        H876   1.084       .  S
O873        H878   0.992       .  S
O875        H879   0.992       .  S
C881        C882   1.405       .  A
C881        C886   1.400       .  A
C881        H891   1.084       .  S
C882        C883   1.409       .  A
C882        C887   1.483       .  S
C883        C884   1.402       .  A
C883        O888   1.372       .  S
C884        C885   1.402       .  A
C884        H889   1.084       .  S
C885        C886   1.406       .  A
C886        O890   1.372       .  S
C887        C892   1.410       .  A
C887        C896   1.402       .  A
O888        H904   0.992       .  S
O890        H901   0.992       .  S
C892        C893   1.403       .  A
C892        O897   1.371       .  S
C893        C894   1.404       .  A
C893        H898   1.084       .  S
C894        C895   1.409       .  A
C895        C896   1.399       .  A
C895        O899   1.371       .  S
C896        H900   1.084       .  S
O897        H902   0.992       .  S
O899        H903   0.992       .  S
C905        C906   1.401       .  A
C905        C910   1.393       .  A
C905        H915   1.084       .  S
C906        C907   1.407       .  A
C906        C911   1.475       .  S
C907        C908   1.396       .  A
C907        O912   1.372       .  S
C908        C909   1.407       .  A
C908        H913   1.083       .  S
C909        C910   1.414       .  A
C910        O914   1.373       .  S
C911        C916   1.407       .  A
C911        C920   1.405       .  A
O912        H928   0.992       .  S
O914        H925   0.992       .  S
C916        C917   1.394       .  A
C916        O921   1.372       .  S
C917        C918   1.403       .  A
C917        H922   1.084       .  S
C918        C919   1.405       .  A
C919        C920   1.395       .  A
C919        O923   1.372       .  S
C920        H924   1.083       .  S
O921        H926   0.992       .  S
O923        H927   0.992       .  S
C929        C930   1.404       .  A
C929        C934   1.397       .  A
C929        H939   1.084       .  S
C930        C931   1.407       .  A
C930        C935   1.470       .  S
C931        C932   1.395       .  A
C931        O936   1.372       .  S
C932        C933   1.401       .  A
C932        H937   1.084       .  S
C933        C934   1.403       .  A
C934        O938   1.371       .  S
C935        C940   1.406       .  A
C935        C944   1.397       .  A
O936        H952   0.992       .  S
O938        H949   0.992       .  S
C940        C941   1.398       .  A
C940        O945   1.371       .  S
C941        C942   1.407       .  A
C941        H946   1.083       .  S
C942        C943   1.415       .  A
C943        C944   1.392       .  A
C943        O947   1.372       .  S
C944        H948   1.084       .  S
O945        H950   0.992       .  S
O947        H951   0.992       .  S
C953        C954   1.407       .  A
C953        C958   1.403       .  A
C953        H963   1.083       .  S
C954        C955   1.413       .  A
C954        C959   1.497       .  S
C955        C956   1.404       .  A
C955        O960   1.372       .  S
C956        C957   1.406       .  A
C956        H961   1.083       .  S
C957        C958   1.412       .  A
C958        O962   1.372       .  S
C959        C964   1.413       .  A
C959        C968   1.408       .  A
O960        H976   0.992       .  S
O962        H973   0.992       .  S
C964        C965   1.402       .  A
C964        O969   1.371       .  S
C965        C966   1.404       .  A
C965        H970   1.084       .  S
C966        C967   1.409       .  A
C967        C968   1.403       .  A
C967        O971   1.371       .  S
C968        H972   1.083       .  S
O969        H974   0.992       .  S
O971        H975   0.992       .  S
C977        C978   1.406       .  A
C977        C982   1.406       .  A
C977        H987   1.083       .  S
C978        C979   1.412       .  A
C978        C983   1.497       .  S
C979        C980   1.407       .  A
C979        O984   1.371       .  S
C980        C981   1.406       .  A
C980        H985   1.083       .  S
C981        C982   1.410       .  A
C982        O986   1.371       .  S
C983        C988   1.410       .  A
C983        C992   1.403       .  A
O984       H1000   0.992       .  S
O986        H997   0.992       .  S
C988        C989   1.409       .  A
C988        O993   1.372       .  S
C989        C990   1.411       .  A
C989        H994   1.083       .  S
C990        C991   1.418       .  A
C991        C992   1.404       .  A
C991        O995   1.371       .  S
C992        H996   1.084       .  S
O993        H998   0.992       .  S
O995        H999   0.992       .  S
C1001      C1002   1.401       .  A
C1001      C1006   1.393       .  A
C1001      H1011   1.084       .  S
C1002      C1003   1.408       .  A
C1002      C1007   1.471       .  S
C1003      C1004   1.398       .  A
C1003      O1008   1.371       .  S
C1004      C1005   1.401       .  A
C1004      H1009   1.083       .  S
C1005      C1006   1.407       .  A
C1006      O1010   1.373       .  S
C1007      C1012   1.404       .  A
C1007      C1016   1.400       .  A
O1008      H1024   0.992       .  S
O1010      H1021   0.992       .  S
C1012      C1013   1.396       .  A
C1012      O1017   1.373       .  S
C1013      C1014   1.408       .  A
C1013      H1018   1.083       .  S
C1014      C1015   1.414       .  A
C1015      C1016   1.396       .  A
C1015      O1019   1.372       .  S
C1016      H1020   1.084       .  S
O1017      H1022   0.992       .  S
O1019      H1023   0.992       .  S
C1025      C1026   1.407       .  A
C1025      C1030   1.399       .  A
C1025      H1035   1.083       .  S
C1026      C1027   1.411       .  A
C1026      C1031   1.489       .  S
C1027      C1028   1.401       .  A
C1027      O1032   1.372       .  S
C1028      C1029   1.404       .  A
C1028      H1033   1.084       .  S
C1029      C1030   1.405       .  A
C1030      O1034   1.372       .  S
C1031      C1036   1.409       .  A
C1031      C1040   1.404       .  A
O1032      H1048   0.992       .  S
O1034      H1045   0.992       .  S
C1036      C1037   1.400       .  A
C1036      O1041   1.373       .  S
C1037      C1038   1.405       .  A
C1037      H1042   1.083       .  S
C1038      C1039   1.415       .  A
C1039      C1040   1.402       .  A
C1039      O1043   1.372       .  S
C1040      H1044   1.083       .  S
O1041      H1046   0.992       .  S
O1043      H1047   0.992       .  S
C1049      C1050   1.406       .  A
C1049      C1054   1.401       .  A
C1049      H1059   1.083       .  S
C1050      C1051   1.412       .  A
C1050      C1055   1.491       .  S
C1051      C1052   1.402       .  A
C1051      O1056   1.371       .  S
C1052      C1053   1.404       .  A
C1052      H1057   1.084       .  S
C1053      C1054   1.407       .  A
C1054      O1058   1.371       .  S
C1055      C1060   1.412       .  A
C1055      C1064   1.404       .  A
O1056      H1072   0.992       .  S
O1058      H1069   0.992       .  S
C1060      C1061   1.407       .  A
C1060      O1065   1.372       .  S
C1061      C1062   1.403       .  A
C1061      H1066   1.083       .  S
C1062      C1063   1.410       .  A
C1063      C1064   1.401       .  A
C1063      O1067   1.372       .  S
C1064      H1068   1.083       .  S
O1065      H1070   0.992       .  S
O1067      H1071   0.992       .  S
C1073      C1074   1.407       .  A
C1073      C1078   1.402       .  A
C1073      H1083   1.083       .  S
C1074      C1075   1.413       .  A
C1074      C1079   1.495       .  S
C1075      C1076   1.403       .  A
C1075      O1080   1.371       .  S
C1076      C1077   1.402       .  A
C1076      H1081   1.084       .  S
C1077      C1078   1.406       .  A
C1078      O1082   1.371       .  S
C1079      C1084   1.411       .  A
C1079      C1088   1.407       .  A
O1080      H1096   0.992       .  S
O1082      H1093   0.992       .  S
C1084      C1085   1.402       .  A
C1084      O1089   1.373       .  S
C1085      C1086   1.406       .  A
C1085      H1090   1.084       .  S
C1086      C1087   1.412       .  A
C1087      C1088   1.405       .  A
C1087      O1091   1.371       .  S
C1088      H1092   1.083       .  S
O1089      H1094   0.992       .  S
O1091      H1095   0.992       .  S
C1097      C1098   1.402       .  A
C1097      C1102   1.402       .  A
C1097      H1107   1.084       .  S
C1098      C1099   1.406       .  A
C1098      C1103   1.480       .  S
C1099      C1100   1.400       .  A
C1099      O1104   1.373       .  S
C1100      C1101   1.407       .  A
C1100      H1105   1.084       .  S
C1101      C1102   1.413       .  A
C1102      O1106   1.371       .  S
C1103      C1108   1.407       .  A
C1103      C1112   1.403       .  A
O1104      H1120   0.992       .  S
O1106      H1117   0.992       .  S
C1108      C1109   1.401       .  A
C1108      O1113   1.373       .  S
C1109      C1110   1.404       .  A
C1109      H1114   1.084       .  S
C1110      C1111   1.408       .  A
C1111      C1112   1.400       .  A
C1111      O1115   1.372       .  S
C1112      H1116   1.084       .  S
O1113      H1118   0.992       .  S
O1115      H1119   0.992       .  S
C1121      C1122   1.401       .  A
C1121      C1126   1.403       .  A
C1121      H1131   1.084       .  S
C1122      C1123   1.405       .  A
C1122      C1127   1.481       .  S
C1123      C1124   1.400       .  A
C1123      O1128   1.372       .  S
C1124      C1125   1.409       .  A
C1124      H1129   1.083       .  S
C1125      C1126   1.416       .  A
C1126      O1130   1.372       .  S
C1127      C1132   1.408       .  A
C1127      C1136   1.403       .  A
O1128      H1144   0.992       .  S
O1130      H1141   0.992       .  S
C1132      C1133   1.400       .  A
C1132      O1137   1.372       .  S
C1133      C1134   1.402       .  A
C1133      H1138   1.084       .  S
C1134      C1135   1.408       .  A
C1135      C1136   1.401       .  A
C1135      O1139   1.371       .  S
C1136      H1140   1.083       .  S
O1137      H1142   0.992       .  S
O1139      H1143   0.992       .  S
C1145      C1146   1.402       .  A
C1145      C1150   1.397       .  A
C1145      H1155   1.083       .  S
C1146      C1147   1.409       .  A
C1146      C1151   1.472       .  S
C1147      C1148   1.395       .  A
C1147      O1152   1.372       .  S
C1148      C1149   1.398       .  A
C1148      H1153   1.084       .  S
C1149      C1150   1.406       .  A
C1150      O1154   1.371       .  S
C1151      C1156   1.408       .  A
C1151      C1160   1.400       .  A
O1152      H1168   0.992       .  S
O1154      H1165   0.992       .  S
C1156      C1157   1.398       .  A
C1156      O1161   1.372       .  S
C1157      C1158   1.401       .  A
C1157      H1162   1.084       .  S
C1158      C1159   1.409       .  A
C1159      C1160   1.396       .  A
C1159      O1163   1.372       .  S
C1160      H1164   1.084       .  S
O1161      H1166   0.992       .  S
O1163      H1167   0.992       .  S
C1169      C1170   1.404       .  A
C1169      C1174   1.394       .  A
C1169      H1179   1.084       .  S
C1170      C1171   1.412       .  A
C1170      C1175   1.481       .  S
C1171      C1172   1.397       .  A
C1171      O1176   1.373       .  S
C1172      C1173   1.401       .  A
C1172      H1177   1.084       .  S
C1173      C1174   1.406       .  A
C1174      O1178   1.373       .  S
C1175      C1180   1.408       .  A
C1175      C1184   1.404       .  A
O1176      H1192   0.992       .  S
O1178      H1189   0.992       .  S
C1180      C1181   1.397       .  A
C1180      O1185   1.371       .  S
C1181      C1182   1.407       .  A
C1181      H1186   1.083       .  S
C1182      C1183   1.411       .  A
C1183      C1184   1.392       .  A
C1183      O1187   1.373       .  S
C1184      H1188   1.083       .  S
O1185      H1190   0.991       .  S
O1187      H1191   0.992       .  S
C1193      C1194   1.405       .  A
C1193      C1198   1.400       .  A
C1193      H1203   1.084       .  S
C1194      C1195   1.409       .  A
C1194      C1199   1.482       .  S
C1195      C1196   1.401       .  A
C1195      O1200   1.372       .  S
C1196      C1197   1.403       .  A
C1196      H1201   1.084       .  S
C1197      C1198   1.405       .  A
C1198      O1202   1.371       .  S
C1199      C1204   1.407       .  A
C1199      C1208   1.401       .  A
O1200      H1216   0.992       .  S
O1202      H1213   0.992       .  S
C1204      C1205   1.402       .  A
C1204      O1209   1.371       .  S
C1205      C1206   1.409       .  A
C1205      H1210   1.083       .  S
C1206      C1207   1.416       .  A
C1207      C1208   1.399       .  A
C1207      O1211   1.372       .  S
C1208      H1212   1.084       .  S
O1209      H1214   0.992       .  S
O1211      H1215   0.992       .  S
C1217      C1218   1.402       .  A
C1217      C1222   1.398       .  A
C1217      H1227   1.084       .  S
C1218      C1219   1.403       .  A
C1218      C1223   1.471       .  S
C1219      C1220   1.395       .  A
C1219      O1224   1.373       .  S
C1220      C1221   1.405       .  A
C1220      H1225   1.083       .  S
C1221      C1222   1.412       .  A
C1222      O1226   1.372       .  S
C1223      C1228   1.409       .  A
C1223      C1232   1.402       .  A
O1224      H1240   0.992       .  S
O1226      H1237   0.992       .  S
C1228      C1229   1.394       .  A
C1228      O1233   1.373       .  S
C1229      C1230   1.397       .  A
C1229      H1234   1.084       .  S
C1230      C1231   1.407       .  A
C1231      C1232   1.397       .  A
C1231      O1235   1.372       .  S
C1232      H1236   1.084       .  S
O1233      H1238   0.992       .  S
O1235      H1239   0.992       .  S
C1241      C1242   1.401       .  A
C1241      C1246   1.394       .  A
C1241      H1251   1.084       .  S
C1242      C1243   1.406       .  A
C1242      C1247   1.469       .  S
C1243      C1244   1.400       .  A
C1243      O1248   1.371       .  S
C1244      C1245   1.402       .  A
C1244      H1249   1.083       .  S
C1245      C1246   1.405       .  A
C1246      O1250   1.372       .  S
C1247      C1252   1.404       .  A
C1247      C1256   1.399       .  A
O1248      H1264   0.992       .  S
O1250      H1261   0.992       .  S
C1252      C1253   1.395       .  A
C1252      O1257   1.372       .  S
C1253      C1254   1.406       .  A
C1253      H1258   1.082       .  S
C1254      C1255   1.414       .  A
C1255      C1256   1.399       .  A
C1255      O1259   1.372       .  S
C1256      H1260   1.084       .  S
O1257      H1262   0.992       .  S
O1259      H1263   0.992       .  S
C1265      C1266   1.400       .  A
C1265      C1270   1.395       .  A
C1265      H1275   1.084       .  S
C1266      C1267   1.407       .  A
C1266      C1271   1.465       .  S
C1267      C1268   1.392       .  A
C1267      O1272   1.372       .  S
C1268      C1269   1.399       .  A
C1268      H1273   1.084       .  S
C1269      C1270   1.407       .  A
C1270      O1274   1.372       .  S
C1271      C1276   1.405       .  A
C1271      C1280   1.397       .  A
O1272      H1288   0.992       .  S
O1274      H1285   0.992       .  S
C1276      C1277   1.395       .  A
C1276      O1281   1.372       .  S
C1277      C1278   1.404       .  A
C1277      H1282   1.083       .  S
C1278      C1279   1.415       .  A
C1279      C1280   1.393       .  A
C1279      O1283   1.372       .  S
C1280      H1284   1.084       .  S
O1281      H1286   0.992       .  S
O1283      H1287   0.991       .  S
C1289      C1290   1.403       .  A
C1289      C1294   1.402       .  A
C1289      H1299   1.083       .  S
C1290      C1291   1.408       .  A
C1290      C1295   1.488       .  S
C1291      C1292   1.401       .  A
C1291      O1296   1.372       .  S
C1292      C1293   1.408       .  A
C1292      H1297   1.083       .  S
C1293      C1294   1.414       .  A
C1294      O1298   1.371       .  S
C1295      C1300   1.412       .  A
C1295      C1304   1.406       .  A
O1296      H1312   0.992       .  S
O1298      H1309   0.992       .  S
C1300      C1301   1.402       .  A
C1300      O1305   1.371       .  S
C1301      C1302   1.401       .  A
C1301      H1306   1.083       .  S
C1302      C1303   1.406       .  A
C1303      C1304   1.400       .  A
C1303      O1307   1.371       .  S
C1304      H1308   1.083       .  S
O1305      H1310   0.992       .  S
O1307      H1311   0.992       .  S
C1313      C1314   1.398       .  A
C1313      C1318   1.399       .  A
C1313      H1323   1.084       .  S
C1314      C1315   1.406       .  A
C1314      C1319   1.478       .  S
C1315      C1316   1.403       .  A
C1315      O1320   1.372       .  S
C1316      C1317   1.409       .  A
C1316      H1321   1.083       .  S
C1317      C1318   1.418       .  A
C1318      O1322   1.371       .  S
C1319      C1324   1.407       .  A
C1319      C1328   1.402       .  A
O1320      H1336   0.991       .  S
O1322      H1333   0.992       .  S
C1324      C1325   1.401       .  A
C1324      O1329   1.372       .  S
C1325      C1326   1.402       .  A
C1325      H1330   1.083       .  S
C1326      C1327   1.408       .  A
C1327      C1328   1.403       .  A
C1327      O1331   1.371       .  S
C1328      H1332   1.083       .  S
O1329      H1334   0.992       .  S
O1331      H1335   0.992       .  S
C1337      C1338   1.400       .  A
C1337      C1342   1.396       .  A
C1337      H1347   1.084       .  S
C1338      C1339   1.406       .  A
C1338      C1343   1.472       .  S
C1339      C1340   1.395       .  A
C1339      O1344   1.372       .  S
C1340      C1341   1.405       .  A
C1340      H1345   1.084       .  S
C1341      C1342   1.413       .  A
C1342      O1346   1.372       .  S
C1343      C1348   1.407       .  A
C1343      C1352   1.402       .  A
O1344      H1360   0.992       .  S
O1346      H1357   0.992       .  S
C1348      C1349   1.395       .  A
C1348      O1353   1.372       .  S
C1349      C1350   1.401       .  A
C1349      H1354   1.084       .  S
C1350      C1351   1.408       .  A
C1351      C1352   1.396       .  A
C1351      O1355   1.372       .  S
C1352      H1356   1.084       .  S
O1353      H1358   0.992       .  S
O1355      H1359   0.992       .  S
C1361      C1362   1.402       .  A
C1361      C1366   1.400       .  A
C1361      H1371   1.084       .  S
C1362      C1363   1.406       .  A
C1362      C1367   1.480       .  S
C1363      C1364   1.399       .  A
C1363      O1368   1.372       .  S
C1364      C1365   1.409       .  A
C1364      H1369   1.083       .  S
C1365      C1366   1.413       .  A
C1366      O1370   1.371       .  S
C1367      C1372   1.409       .  A
C1367      C1376   1.403       .  A
O1368      H1384   0.992       .  S
O1370      H1381   0.992       .  S
C1372      C1373   1.401       .  A
C1372      O1377   1.372       .  S
C1373      C1374   1.401       .  A
C1373      H1378   1.083       .  S
C1374      C1375   1.406       .  A
C1375      C1376   1.399       .  A
C1375      O1379   1.372       .  S
C1376      H1380   1.084       .  S
O1377      H1382   0.992       .  S
O1379      H1383   0.992       .  S
C1385      C1386   1.403       .  A
C1385      C1390   1.393       .  A
C1385      H1395   1.084       .  S
C1386      C1387   1.407       .  A
C1386      C1391   1.472       .  S
C1387      C1388   1.397       .  A
C1387      O1392   1.373       .  S
C1388      C1389   1.402       .  A
C1388      H1393   1.084       .  S
C1389      C1390   1.407       .  A
C1390      O1394   1.372       .  S
C1391      C1396   1.407       .  A
C1391      C1400   1.400       .  A
O1392      H1408   0.992       .  S
O1394      H1405   0.992       .  S
C1396      C1397   1.394       .  A
C1396      O1401   1.372       .  S
C1397      C1398   1.405       .  A
C1397      H1402   1.083       .  S
C1398      C1399   1.414       .  A
C1399      C1400   1.394       .  A
C1399      O1403   1.372       .  S
C1400      H1404   1.084       .  S
O1401      H1406   0.992       .  S
O1403      H1407   0.992       .  S
C1409      C1410   1.406       .  A
C1409      C1414   1.402       .  A
C1409      H1419   1.083       .  S
C1410      C1411   1.414       .  A
C1410      C1415   1.493       .  S
C1411      C1412   1.403       .  A
C1411      O1416   1.371       .  S
C1412      C1413   1.401       .  A
C1412      H1417   1.083       .  S
C1413      C1414   1.407       .  A
C1414      O1418   1.371       .  S
C1415      C1420   1.411       .  A
C1415      C1424   1.402       .  A
O1416      H1432   0.992       .  S
O1418      H1429   0.992   1_554  S
C1420      C1421   1.408       .  A
C1420      O1425   1.372       .  S
C1421      C1422   1.409       .  A
C1421      H1426   1.083       .  S
C1422      C1423   1.416       .  A
C1423      C1424   1.399       .  A
C1423      O1427   1.372       .  S
C1424      H1428   1.084       .  S
O1425      H1430   0.992       .  S
O1427      H1431   0.992       .  S
C1433      C1434   1.401       .  A
C1433      C1438   1.398       .  A
C1433      H1443   1.084       .  S
C1434      C1435   1.409       .  A
C1434      C1439   1.484       .  S
C1435      C1436   1.402       .  A
C1435      O1440   1.372       .  S
C1436      C1437   1.407       .  A
C1436      H1441   1.083       .  S
C1437      C1438   1.416       .  A
C1438      O1442   1.372       .  S
C1439      C1444   1.409       .  A
C1439      C1448   1.405       .  A
O1440      H1456   0.992       .  S
O1442      H1453   0.992       .  S
C1444      C1445   1.399       .  A
C1444      O1449   1.371       .  S
C1445      C1446   1.405       .  A
C1445      H1450   1.084       .  S
C1446      C1447   1.409       .  A
C1447      C1448   1.397       .  A
C1447      O1451   1.372       .  S
C1448      H1452   1.084       .  S
O1449      H1454   0.992       .  S
O1451      H1455   0.992       .  S
C1457      C1458   1.406       .  A
C1457      C1462   1.403       .  A
C1457      H1467   1.083       .  S
C1458      C1459   1.412       .  A
C1458      C1463   1.497       .  S
C1459      C1460   1.408       .  A
C1459      O1464   1.371       .  S
C1460      C1461   1.405       .  A
C1460      H1465   1.083       .  S
C1461      C1462   1.409       .  A
C1462      O1466   1.371       .  S
C1463      C1468   1.410       .  A
C1463      C1472   1.405       .  A
O1464      H1480   0.992       .  S
O1466      H1477   0.992       .  S
C1468      C1469   1.406       .  A
C1468      O1473   1.372       .  S
C1469      C1470   1.409       .  A
C1469      H1474   1.083       .  S
C1470      C1471   1.416       .  A
C1471      C1472   1.407       .  A
C1471      O1475   1.371       .  S
C1472      H1476   1.083       .  S
O1473      H1478   0.992       .  S
O1475      H1479   0.992       .  S
C1481      C1482   1.401       .  A
C1481      C1486   1.399       .  A
C1481      H1491   1.084       .  S
C1482      C1483   1.402       .  A
C1482      C1487   1.470       .  S
C1483      C1484   1.397       .  A
C1483      O1488   1.372       .  S
C1484      C1485   1.408       .  A
C1484      H1489   1.083       .  S
C1485      C1486   1.412       .  A
C1486      O1490   1.372       .  S
C1487      C1492   1.408       .  A
C1487      C1496   1.399       .  A
O1488      H1504   0.992       .  S
O1490      H1501   0.992       .  S
C1492      C1493   1.400       .  A
C1492      O1497   1.372       .  S
C1493      C1494   1.402       .  A
C1493      H1498   1.083       .  S
C1494      C1495   1.406       .  A
C1495      C1496   1.395       .  A
C1495      O1499   1.372       .  S
C1496      H1500   1.084       .  S
O1497      H1502   0.992       .  S
O1499      H1503   0.992       .  S
C1505      C1506   1.408       .  A
C1505      C1510   1.407       .  A
C1505      H1515   1.083       .  S
C1506      C1507   1.412       .  A
C1506      C1511   1.496       .  S
C1507      C1508   1.400       .  A
C1507      O1512   1.372       .  S
C1508      C1509   1.402       .  A
C1508      H1513   1.084       .  S
C1509      C1510   1.410       .  A
C1510      O1514   1.371       .  S
C1511      C1516   1.413       .  A
C1511      C1520   1.405       .  A
O1512      H1528   0.992       .  S
O1514      H1525   0.992       .  S
C1516      C1517   1.406       .  A
C1516      O1521   1.371       .  S
C1517      C1518   1.407       .  A
C1517      H1522   1.083       .  S
C1518      C1519   1.410       .  A
C1519      C1520   1.400       .  A
C1519      O1523   1.372       .  S
C1520      H1524   1.083       .  S
O1521      H1526   0.992       .  S
O1523      H1527   0.992       .  S
C1529      C1530   1.404       .  A
C1529      C1534   1.402       .  A
C1529      H1539   1.083       .  S
C1530      C1531   1.409       .  A
C1530      C1535   1.491       .  S
C1531      C1532   1.402       .  A
C1531      O1536   1.372       .  S
C1532      C1533   1.408       .  A
C1532      H1537   1.083       .  S
C1533      C1534   1.415       .  A
C1534      O1538   1.372       .  S
C1535      C1540   1.410       .  A
C1535      C1544   1.406       .  A
O1536      H1552   0.992       .  S
O1538      H1549   0.992       .  S
C1540      C1541   1.401       .  A
C1540      O1545   1.372       .  S
C1541      C1542   1.405       .  A
C1541      H1546   1.084       .  S
C1542      C1543   1.409       .  A
C1543      C1544   1.402       .  A
C1543      O1547   1.372       .  S
C1544      H1548   1.083       .  S
O1545      H1550   0.992       .  S
O1547      H1551   0.992       .  S
C1553      C1554   1.402       .  A
C1553      C1558   1.398       .  A
C1553      H1563   1.084       .  S
C1554      C1555   1.406       .  A
C1554      C1559   1.477       .  S
C1555      C1556   1.395       .  A
C1555      O1560   1.372       .  S
C1556      C1557   1.408       .  A
C1556      H1561   1.084       .  S
C1557      C1558   1.413       .  A
C1558      O1562   1.371       .  S
C1559      C1564   1.407       .  A
C1559      C1568   1.407       .  A
O1560      H1576   0.992       .  S
O1562      H1573   0.992       .  S
C1564      C1565   1.393       .  A
C1564      O1569   1.372       .  S
C1565      C1566   1.401       .  A
C1565      H1570   1.084       .  S
C1566      C1567   1.403       .  A
C1567      C1568   1.400       .  A
C1567      O1571   1.372       .  S
C1568      H1572   1.083       .  S
O1569      H1574   0.992       .  S
O1571      H1575   0.992       .  S
C1577      C1578   1.401       .  A
C1577      C1582   1.397       .  A
C1577      H1587   1.084       .  S
C1578      C1579   1.407       .  A
C1578      C1583   1.478       .  S
C1579      C1580   1.400       .  A
C1579      O1584   1.372       .  S
C1580      C1581   1.406       .  A
C1580      H1585   1.083       .  S
C1581      C1582   1.414       .  A
C1582      O1586   1.372       .  S
C1583      C1588   1.408       .  A
C1583      C1592   1.404       .  A
O1584      H1600   0.992       .  S
O1586      H1597   0.992       .  S
C1588      C1589   1.398       .  A
C1588      O1593   1.372       .  S
C1589      C1590   1.401       .  A
C1589      H1594   1.084       .  S
C1590      C1591   1.407       .  A
C1591      C1592   1.402       .  A
C1591      O1595   1.371       .  S
C1592      H1596   1.083       .  S
O1593      H1598   0.992       .  S
O1595      H1599   0.992       .  S
C1601      C1602   1.397       .  A
C1601      C1606   1.392       .  A
C1601      H1611   1.084       .  S
C1602      C1603   1.404       .  A
C1602      C1607   1.466       .  S
C1603      C1604   1.399       .  A
C1603      O1608   1.372       .  S
C1604      C1605   1.408       .  A
C1604      H1609   1.084       .  S
C1605      C1606   1.412       .  A
C1606      O1610   1.372       .  S
C1607      C1612   1.406       .  A
C1607      C1616   1.402       .  A
O1608      H1624   0.992       .  S
O1610      H1621   0.992       .  S
C1612      C1613   1.396       .  A
C1612      O1617   1.372       .  S
C1613      C1614   1.401       .  A
C1613      H1618   1.084       .  S
C1614      C1615   1.404       .  A
C1615      C1616   1.395       .  A
C1615      O1619   1.371       .  S
C1616      H1620   1.084       .  S
O1617      H1622   0.992       .  S
O1619      H1623   0.992       .  S
C1625      C1626   1.401       .  A
C1625      C1630   1.399       .  A
C1625      H1635   1.083       .  S
C1626      C1627   1.407       .  A
C1626      C1631   1.469       .  S
C1627      C1628   1.395       .  A
C1627      O1632   1.372       .  S
C1628      C1629   1.401       .  A
C1628      H1633   1.084       .  S
C1629      C1630   1.407       .  A
C1630      O1634   1.371       .  S
C1631      C1636   1.405       .  A
C1631      C1640   1.401       .  A
O1632      H1648   0.992       .  S
O1634      H1645   0.992       .  S
C1636      C1637   1.397       .  A
C1636      O1641   1.372       .  S
C1637      C1638   1.405       .  A
C1637      H1642   1.084       .  S
C1638      C1639   1.408       .  A
C1639      C1640   1.397       .  A
C1639      O1643   1.371       .  S
C1640      H1644   1.084       .  S
O1641      H1646   0.992       .  S
O1643      H1647   0.992       .  S
C1649      C1650   1.403       .  A
C1649      C1654   1.397       .  A
C1649      H1659   1.084       .  S
C1650      C1651   1.401       .  A
C1650      C1655   1.459       .  S
C1651      C1652   1.391       .  A
C1651      O1656   1.372       .  S
C1652      C1653   1.403       .  A
C1652      H1657   1.084       .  S
C1653      C1654   1.403       .  A
C1654      O1658   1.372       .  S
C1655      C1660   1.402       .  A
C1655      C1664   1.396       .  A
O1656      H1672   0.991       .  S
O1658      H1669   0.992   1_554  S
C1660      C1661   1.397       .  A
C1660      O1665   1.372       .  S
C1661      C1662   1.407       .  A
C1661      H1666   1.083       .  S
C1662      C1663   1.411       .  A
C1663      C1664   1.391       .  A
C1663      O1667   1.373       .  S
C1664      H1668   1.084       .  S
O1665      H1670   0.992       .  S
O1667      H1671   0.992       .  S
C1673      C1674   1.401       .  A
C1673      C1678   1.399       .  A
C1673      H1683   1.084       .  S
C1674      C1675   1.403       .  A
C1674      C1679   1.471       .  S
C1675      C1676   1.397       .  A
C1675      O1680   1.373       .  S
C1676      C1677   1.407       .  A
C1676      H1681   1.083       .  S
C1677      C1678   1.413       .  A
C1678      O1682   1.372       .  S
C1679      C1684   1.408       .  A
C1679      C1688   1.401       .  A
O1680      H1696   0.992       .  S
O1682      H1693   0.992       .  S
C1684      C1685   1.395       .  A
C1684      O1689   1.372       .  S
C1685      C1686   1.400       .  A
C1685      H1690   1.084       .  S
C1686      C1687   1.407       .  A
C1687      C1688   1.398       .  A
C1687      O1691   1.372       .  S
C1688      H1692   1.084       .  S
O1689      H1694   0.992       .  S
O1691      H1695   0.992       .  S
C1697      C1698   1.405       .  A
C1697      C1702   1.399       .  A
C1697      H1707   1.084       .  S
C1698      C1699   1.408       .  A
C1698      C1703   1.477       .  S
C1699      C1700   1.398       .  A
C1699      O1704   1.372       .  S
C1700      C1701   1.399       .  A
C1700      H1705   1.084       .  S
C1701      C1702   1.405       .  A
C1702      O1706   1.372       .  S
C1703      C1708   1.406       .  A
C1703      C1712   1.399       .  A
O1704      H1720   0.992       .  S
O1706      H1717   0.992       .  S
C1708      C1709   1.402       .  A
C1708      O1713   1.373       .  S
C1709      C1710   1.408       .  A
C1709      H1714   1.083       .  S
C1710      C1711   1.416       .  A
C1711      C1712   1.396       .  A
C1711      O1715   1.372       .  S
C1712      H1716   1.084       .  S
O1713      H1718   0.992       .  S
O1715      H1719   0.992       .  S
C1721      C1722   1.396       .  A
C1721      C1726   1.395       .  A
C1721      H1731   1.084       .  S
C1722      C1723   1.404       .  A
C1722      C1727   1.468       .  S
C1723      C1724   1.399       .  A
C1723      O1728   1.372       .  S
C1724      C1725   1.408       .  A
C1724      H1729   1.083       .  S
C1725      C1726   1.416       .  A
C1726      O1730   1.372       .  S
C1727      C1732   1.406       .  A
C1727      C1736   1.400       .  A
O1728      H1744   0.992       .  S
O1730      H1741   0.992       .  S
C1732      C1733   1.399       .  A
C1732      O1737   1.371       .  S
C1733      C1734   1.402       .  A
C1733      H1738   1.083       .  S
C1734      C1735   1.405       .  A
C1735      C1736   1.396       .  A
C1735      O1739   1.371       .  S
C1736      H1740   1.084       .  S
O1737      H1742   0.992       .  S
O1739      H1743   0.992       .  S
C1745      C1746   1.402       .  A
C1745      C1750   1.400       .  A
C1745      H1755   1.083       .  S
C1746      C1747   1.408       .  A
C1746      C1751   1.476       .  S
C1747      C1748   1.396       .  A
C1747      O1752   1.372       .  S
C1748      C1749   1.401       .  A
C1748      H1753   1.084       .  S
C1749      C1750   1.409       .  A
C1750      O1754   1.372       .  S
C1751      C1756   1.406       .  A
C1751      C1760   1.400       .  A
O1752      H1768   0.992       .  S
O1754      H1765   0.992       .  S
C1756      C1757   1.401       .  A
C1756      O1761   1.371       .  S
C1757      C1758   1.405       .  A
C1757      H1762   1.083       .  S
C1758      C1759   1.413       .  A
C1759      C1760   1.396       .  A
C1759      O1763   1.372       .  S
C1760      H1764   1.084       .  S
O1761      H1766   0.992       .  S
O1763      H1767   0.992       .  S
