geometry optimzed in LAMMPS
_audit_creation_date              2020-12-01 
_audit_creation_method            'lammps2cif' 
_symmetry_space_group_name_H-M    'P1' 
_symmetry_Int_Tables_number       1 
_symmetry_cell_setting            triclinic 
loop_ 
_symmetry_equiv_pos_as_xyz 
  x,y,z 
_cell_length_a                    53.78014064 
_cell_length_b                    53.08328965845071 
_cell_length_c                    37.202689756077035 
_cell_angle_alpha                 90.26618010126835 
_cell_angle_beta                  89.47922538636784 
_cell_angle_gamma                 119.57895421845744 
loop_ 
_atom_site_label 
_atom_site_type_symbol 
_atom_site_fract_x 
_atom_site_fract_y 
_atom_site_fract_z 
_atom_site_charge 
O1          O  0.28244259  0.28396730  0.31566646    -0.83000
C2          C  0.34752618  0.23185849  0.29508922     0.96300
O3          O  0.33314761  0.24070242  0.27842157    -0.72100
O4          O  0.29652630  0.25813437  0.26306680    -0.75700
Al5        Al  0.33028110  0.27245494  0.29441320     1.49000
C6          C  0.27062841  0.23799810  0.26732263     0.91600
O7          O  0.26104071  0.21059759  0.36591634    -0.81900
O8          O  0.30494064  0.24488579  0.40600595    -0.75500
Al9        Al  0.27540158  0.24810291  0.33985730     1.90100
O10         O  0.29676207  0.20245953  0.35635822    -0.74600
O11         O  0.35455302  0.27811879  0.37421025    -0.74400
O12         O  0.34910582  0.23352572  0.32921344    -0.80100
O13         O  0.36834198  0.28971016  0.31857955    -0.78300
O14         O  0.31028278  0.25370129  0.33264409    -1.14400
O15         O  0.32897137  0.30617555  0.30657911    -0.73600
C16         C  0.30570388  0.30642266  0.30663036     0.97100
C17         C  0.27217958  0.19431257  0.36902366     0.93500
Al18       Al  0.32537202  0.24076472  0.36422074     1.55600
O19         O  0.26173181  0.22657929  0.29767647    -0.78200
C20         C  0.37451186  0.29064459  0.35191577     0.97700
C21         C  0.29095319  0.25834787  0.40968133     0.92500
O22         O  0.28641069  0.26966278  0.38276742    -0.83600
O23         O  0.19232669  0.18411963  0.06271508    -0.83000
C24         C  0.12853776  0.23708316  0.04155959     0.96300
O25         O  0.14236032  0.22752131  0.02433278    -0.72100
O26         O  0.17838078  0.20796137  0.00832860    -0.75700
Al27       Al  0.14517551  0.19584688  0.04116846     1.49000
C28         C  0.20426943  0.22823533  0.01144055     0.91600
O29         O  0.21588237  0.25929185  0.10838595    -0.81900
O30         O  0.17350774  0.22677786  0.15227312    -0.75500
Al31       Al  0.20049325  0.22109439  0.08414319     1.90100
O32         O  0.18042983  0.26806920  0.10116323    -0.74600
O33         O  0.12258343  0.19261851  0.12216223    -0.74400
O34         O  0.12769321  0.23631599  0.07586954    -0.80100
O35         O  0.10808295  0.17990619  0.06699044    -0.78300
O36         O  0.16589236  0.21570428  0.07843525    -1.14400
O37         O  0.14583221  0.16220145  0.05436875    -0.73600
C38         C  0.16864970  0.16125783  0.05662093     0.97100
C39         C  0.20543339  0.27616032  0.11161986     0.93500
Al40       Al  0.15182128  0.22977533  0.11058457     1.55600
O41         O  0.21305469  0.24126063  0.04084695    -0.78200
C42         C  0.10246750  0.17919231  0.10056886     0.97700
C43         C  0.18784922  0.21355294  0.15461695     0.92500
O44         O  0.19021737  0.20088867  0.12745533    -0.83600
O45         O  0.18313594  0.47903156  0.99394074    -0.83000
C46         C  0.23626311  0.09574184  0.46324929     0.96300
O47         O  0.22815440  0.07220348  0.44681802    -0.72100
O48         O  0.21062543  0.01619698  0.43400520    -0.75700
Al49       Al  0.19693223  0.03790449  0.46401463     1.49000
C50         C  0.22939310  0.00859660  0.43988149     0.91600
O51         O  0.25965234  0.02737404  0.03748272    -0.81900
O52         O  0.22932796  0.04296004  0.07595447    -0.75500
Al53       Al  0.22192956  0.00531824  0.01289154     1.90100
O54         O  0.27127757  0.07252513  0.02513803    -0.74600
O55         O  0.19715086  0.05946309  0.04083989    -0.74400
O56         O  0.23544532  0.09620011  0.49747672    -0.80100
O57         O  0.18023810  0.05983319  0.48736023    -0.78300
O58         O  0.22002027  0.03642130  0.00159248    -1.14400
O59         O  0.16841174  0.50434761  0.47177361    -0.73600
C60         C  0.16570510  0.47978925  0.47711326     0.97100
C61         C  0.27786137  0.05450890  0.03756362     0.93500
Al62       Al  0.23381647  0.06571568  0.03209789     1.55600
O63         O  0.24337970  0.50795347  0.47034500    -0.78200
C64         C  0.18461809  0.06606680  0.01747974     0.97700
C65         C  0.21402600  0.01582912  0.08073113     0.92500
O66         O  0.19811140  0.50268712  0.05702190    -0.83600
O67         O  0.29319040  0.49044971  0.23586727    -0.83000
C68         C  0.23503470  0.37275290  0.20776286     0.96300
O69         O  0.24158892  0.39649001  0.19288365    -0.72100
O70         O  0.26133234  0.45216080  0.17952838    -0.75700
Al71       Al  0.27519783  0.43002506  0.20651020     1.49000
C72         C  0.24385785  0.46087664  0.18809651     0.91600
O73         O  0.22015554  0.44029188  0.28582949    -0.81900
O74         O  0.25278059  0.42644702  0.32291080    -0.75500
Al75       Al  0.25740519  0.46263539  0.25942497     1.90100
O76         O  0.20958972  0.39528594  0.27462836    -0.74600
O77         O  0.28434599  0.40895011  0.28429195    -0.74400
O78         O  0.23816181  0.37237778  0.24166540    -0.80100
O79         O  0.29219405  0.40766194  0.22629351    -0.78300
O80         O  0.25972769  0.43186107  0.24770715    -1.14400
O81         O  0.31028512  0.46303897  0.21565274    -0.73600
C82         C  0.31535128  0.99149247  0.22884888     0.97100
C83         C  0.20239753  0.41303389  0.28662327     0.93500
Al84       Al  0.24726207  0.40281664  0.27862067     1.55600
O85         O  0.23569716  0.45996211  0.21993844    -0.78200
C86         C  0.29578769  0.40253891  0.25880493     0.97700
C87         C  0.26729698  0.45388332  0.32658273     0.92500
O88         O  0.27999253  0.46853621  0.29965862    -0.83600
O89         O  0.48455804  0.28266687  0.40050058    -0.83000
C90         C  0.10072900  0.34741581  0.37417462     0.96300
O91         O  0.07800471  0.33114598  0.35745698    -0.72100
O92         O  0.02322241  0.29283341  0.34213591    -0.75700
Al93       Al  0.04309962  0.32820661  0.37233665     1.49000
C94         C  0.01667027  0.26652036  0.34792211     0.91600
O95         O  0.03683359  0.26072401  0.44672158    -0.81900
O96         O  0.04479638  0.30555952  0.48626857    -0.75500
Al97       Al  0.01312827  0.27410951  0.42010526     1.90100
O98         O  0.07974522  0.29758370  0.43791647    -0.74600
O99         O  0.05903948  0.35442320  0.45140828    -0.74400
O100        O  0.09972923  0.34928201  0.40833993    -0.80100
O101        O  0.06363117  0.36756872  0.39527826    -0.78300
O102        O  0.04180386  0.30907342  0.41163130    -1.14400
O103        O  0.50782108  0.32981368  0.39148889    -0.73600
C104        C  0.48467869  0.30613136  0.39273734     0.97100
C105        C  0.06399958  0.27247641  0.45011712     0.93500
Al106      Al  0.06895105  0.32570436  0.44372360     1.55600
O107        O  0.01995270  0.25868343  0.37851576    -0.78200
C108        C  0.06774646  0.37439919  0.42862017     0.97700
C109        C  0.01764929  0.29123853  0.48925170     0.92500
O110        O  0.00295558  0.28651549  0.46167135    -0.83600
O111        O  0.99292665  0.18500446  0.14948963    -0.83000
C112        C  0.37694801  0.12365265  0.12497693     0.96300
O113        O  0.40018335  0.13979931  0.10873653    -0.72100
O114        O  0.45561318  0.17762758  0.09490878    -0.75700
Al115      Al  0.43469543  0.14328866  0.12586363     1.49000
C116        C  0.46208185  0.20398861  0.09935862     0.91600
O117        O  0.43893258  0.21235068  0.19579744    -0.81900
O118        O  0.42814425  0.16893982  0.23807522    -0.75500
Al119      Al  0.46311342  0.19783963  0.17256511     1.90100
O120        O  0.39639506  0.17611667  0.18453706    -0.74600
O121        O  0.41347210  0.11755642  0.20609318    -0.74400
O122        O  0.37671476  0.12309849  0.15918751    -0.80100
O123        O  0.41450948  0.10565226  0.14973695    -0.78300
O124        O  0.43453723  0.16294026  0.16406289    -1.14400
O125        O  0.46842749  0.14400315  0.13905795    -0.73600
C126        C  0.99170604  0.16150191  0.13928544     0.97100
C127        C  0.41174313  0.20113730  0.19707812     0.93500
Al128      Al  0.40572456  0.14745653  0.19482246     1.55600
O129        O  0.45845954  0.21280794  0.12930261    -0.78200
C130        C  0.40865342  0.09843642  0.18263391     0.97700
C131        C  0.45515935  0.18300535  0.24226636     0.92500
O132        O  0.47072941  0.18554654  0.21581538    -0.83600
C133        C  0.46971106  0.20186118  0.27405062    -0.07300
C134        C  0.49998020  0.21799517  0.27292820    -0.18500
C135        C  0.01575989  0.24223599  0.28887009     0.09900
C136        C  0.00218272  0.24352041  0.32060880    -0.07300
C137        C  0.47116617  0.23348056  0.32270980    -0.18500
C138        C  0.45537099  0.20933115  0.30049262     0.09900
S139        S  0.05170056  0.26950798  0.27694021    -0.33500
S140        S  0.41726825  0.18915081  0.30754941    -0.33500
H141        H  0.41565259  0.16199281  0.30376687     0.27900
H142        H  0.06201455  0.27693527  0.31219062     0.27900
H143        H  0.01201027  0.21939374  0.24037276     0.18500
H144        H  0.46003661  0.23889366  0.34309101     0.18500
C145        C  0.00838702  0.27183266  0.02401456    -0.07300
C146        C  0.02213038  0.25795649  0.03930376    -0.18500
C147        C  0.00749446  0.23423769  0.06241669     0.09900
C148        C  0.47676728  0.22591846  0.07114197    -0.07300
C149        C  0.46151358  0.23671522  0.05258674    -0.18500
C150        C  0.47538586  0.25989409  0.02852136     0.09900
S151        S  0.02659104  0.21753206  0.08102411    -0.33500
S152        S  0.45366338  0.27240605  0.00666059    -0.33500
H153        H  0.47851261  0.30334699  0.50862013     0.27900
H154        H  0.05427065  0.23976556  0.07214873     0.27900
H155        H  0.04385368  0.26442902  0.03121531     0.18500
H156        H  0.43869891  0.22720949  0.05714601     0.18500
C157        C  0.12733029  0.36578939  0.35241252    -0.07300
C158        C  0.12756408  0.35836964  0.31602277    -0.18500
C159        C  0.15046783  0.37534734  0.29290733     0.09900
C160        C  0.17452274  0.40052152  0.30595181    -0.07300
C161        C  0.17404776  0.40886994  0.34173129    -0.18500
C162        C  0.15083776  0.39194662  0.36501744     0.09900
S163        S  0.14794019  0.36342527  0.24687892    -0.33500
S164        S  0.15230135  0.40409304  0.41066240    -0.33500
H165        H  0.17247582  0.43331684  0.40406967     0.27900
H166        H  0.16627817  0.39103786  0.23242360     0.27900
H167        H  0.10961999  0.33899387  0.30518526     0.18500
H168        H  0.19272075  0.42774819  0.35217390     0.18500
C169        C  0.39078362  0.06764509  0.19339238    -0.07300
C170        C  0.38618661  0.06134679  0.23045190    -0.18500
C171        C  0.36243876  0.03600482  0.24300421     0.09900
C172        C  0.34215087  0.01713346  0.21819888    -0.07300
C173        C  0.34814411  0.02167734  0.18135621    -0.18500
C174        C  0.37255965  0.04619570  0.16865955     0.09900
S175        S  0.35936418  0.02906282  0.29063649    -0.33500
S176        S  0.37794694  0.04919423  0.12065549    -0.33500
H177        H  0.40753392  0.05944754  0.12293108     0.27900
H178        H  0.34230794  0.99877948  0.28847131     0.27900
H179        H  0.40045379  0.07690571  0.24992851     0.18500
H180        H  0.33334768  0.00615323  0.16222103     0.18500
C181        C  0.21590469  0.50317844  0.11423263    -0.07300
C182        C  0.20770937  0.47358341  0.10964901    -0.18500
C183        C  0.21678438  0.45929969  0.13289352     0.09900
C184        C  0.23408800  0.47452323  0.16197633    -0.07300
C185        C  0.23817020  0.00146987  0.17017877    -0.18500
C186        C  0.22947294  0.01506745  0.14495544     0.09900
S187        S  0.20580026  0.42181932  0.12385171    -0.33500
S188        S  0.23310853  0.05004470  0.15510149    -0.33500
H189        H  0.24557629  0.05347075  0.18913657     0.27900
H190        H  0.20384339  0.41334173  0.15998877     0.27900
H191        H  0.19515930  0.46153123  0.08670765     0.18500
H192        H  0.24708445  0.01211003  0.19550483     0.18500
C193        C  0.26387779  0.46919483  0.35845616    -0.07300
C194        C  0.24872064  0.45281718  0.38855165    -0.18500
C195        C  0.23921122  0.46470640  0.41556520     0.09900
C196        C  0.24358288  0.49312479  0.41153378    -0.07300
C197        C  0.26061828  0.01309315  0.38855841    -0.18500
C198        C  0.27086822  0.49894671  0.35691551     0.09900
S199        S  0.22072451  0.44305676  0.45448216    -0.33500
S200        S  0.30304351  0.02696933  0.33780694    -0.33500
H201        H  0.29995495  0.54970187  0.34075600     0.27900
H202        H  0.22187059  0.41807572  0.44440424     0.27900
H203        H  0.24361239  0.43042472  0.39037986     0.18500
H204        H  0.26857375  0.03620852  0.38965627     0.18500
C205        C  0.30488878  0.06660560  0.05795356    -0.07300
C206        C  0.30317433  0.06224891  0.09528651    -0.18500
C207        C  0.32589524  0.08035699  0.11809176     0.09900
C208        C  0.35120871  0.10369094  0.10319434    -0.07300
C209        C  0.35329144  0.10657229  0.06540830    -0.18500
C210        C  0.33057188  0.08839999  0.04290443     0.09900
S211        S  0.32131623  0.07343867  0.16589656    -0.33500
S212        S  0.33430080  0.09299237  0.99472770    -0.33500
H213        H  0.36173035  0.11756536  0.99453785     0.27900
H214        H  0.29843338  0.04490495  0.16354668     0.27900
H215        H  0.28320047  0.04581982  0.10687389     0.18500
H216        H  0.37276981  0.12338205  0.05325526     0.18500
C217        C  0.13844953  0.45410115  0.46646934    -0.07300
C218        C  0.12769243  0.45324790  0.43181361    -0.18500
C219        C  0.10290655  0.42874330  0.41928101     0.09900
C220        C  0.08819407  0.40433699  0.44191217    -0.07300
C221        C  0.09767028  0.40675494  0.47787734    -0.18500
C222        C  0.12274694  0.43093959  0.49003179     0.09900
S223        S  0.09188101  0.42977504  0.37403015    -0.33500
S224        S  0.13464402  0.43203997  0.53558857    -0.33500
H225        H  0.11145434  0.40552584  0.54696760     0.27900
H226        H  0.06246071  0.41384745  0.38207380     0.27900
H227        H  0.13929608  0.47148465  0.41385796     0.18500
H228        H  0.08648492  0.38877323  0.49620841     0.18500
C229        C  0.07252810  0.16748375  0.11406356    -0.07300
C230        C  0.05014988  0.15522691  0.08914295    -0.18500
C231        C  0.02299078  0.15141863  0.09744689     0.09900
C232        C  0.01817587  0.16060344  0.13124107    -0.07300
C233        C  0.03954882  0.17063265  0.15711809    -0.18500
C234        C  0.06638507  0.17347589  0.14950496     0.09900
S235        S  0.99563075  0.13759991  0.06338240    -0.33500
S236        S  0.09218678  0.18549448  0.18560087    -0.33500
H237        H  0.07577031  0.18989554  0.21191427     0.27900
H238        H  0.50848219  0.13535030  0.04087779     0.27900
H239        H  0.05440432  0.15019441  0.06234276     0.18500
H240        H  0.03516840  0.17663755  0.18330299     0.18500
C241        C  0.07850820  0.26024626  0.47274124    -0.07300
C242        C  0.10867323  0.27467976  0.47131932    -0.18500
C243        C  0.12484956  0.26971107  0.49651966     0.09900
C244        C  0.11201848  0.24715078  0.02033328    -0.07300
C245        C  0.08305483  0.22763234  0.01323527    -0.18500
C246        C  0.06453861  0.23910318  0.49990354     0.09900
S247        S  0.16329680  0.29019924  0.49174034    -0.33500
S248        S  0.03080159  0.20743498  0.97883646    -0.33500
H249        H  0.02432978  0.20526797  0.53549733     0.27900
H250        H  0.16448905  0.29239468  0.04268628     0.27900
H251        H  0.12010744  0.29086373  0.45081203     0.18500
H252        H  0.07277145  0.20707917  0.02725878     0.18500
C253        C  0.21892945  0.30237964  0.13445376    -0.07300
C254        C  0.21973563  0.29842516  0.17166719    -0.18500
C255        C  0.22357614  0.32013941  0.19656200     0.09900
C256        C  0.22756799  0.34706985  0.18394455    -0.07300
C257        C  0.22756256  0.35103444  0.14634683    -0.18500
C258        C  0.22308472  0.32905265  0.12178449     0.09900
S259        S  0.22161507  0.31215117  0.24401873    -0.33500
S260        S  0.22278564  0.33506842  0.07409073    -0.33500
H261        H  0.22617150  0.36304522  0.07644657     0.27900
H262        H  0.22111755  0.28551518  0.24075142     0.27900
H263        H  0.21542714  0.27747005  0.18137363     0.18500
H264        H  0.23106110  0.37152737  0.13590308     0.18500
C265        C  0.16780239  0.13352939  0.04977059    -0.07300
C266        C  0.15491535  0.11797444  0.01818860    -0.18500
C267        C  0.15764358  0.09398968  0.00776420     0.09900
C268        C  0.17307575  0.08503271  0.02979853    -0.07300
C269        C  0.18265618  0.09867053  0.06357086    -0.18500
C270        C  0.18072731  0.12304735  0.07334136     0.09900
S271        S  0.13966432  0.07991542  0.46746874    -0.33500
S272        S  0.19494502  0.14073224  0.11588821    -0.33500
H273        H  0.20826670  0.12465977  0.12543148     0.27900
H274        H  0.12983882  0.05127935  0.47894047     0.27900
H275        H  0.14403163  0.12552727  0.00056379     0.18500
H276        H  0.19355541  0.09154432  0.08168566     0.18500
C277        C  0.36412608  0.22219407  0.27310657    -0.07300
C278        C  0.39403778  0.23965504  0.27161654    -0.18500
C279        C  0.41038171  0.23576445  0.24465250     0.09900
C280        C  0.39666327  0.21327906  0.21904643    -0.07300
C281        C  0.36649653  0.19692888  0.21996949    -0.18500
C282        C  0.35036560  0.20077357  0.24672436     0.09900
S283        S  0.44826843  0.26062858  0.24398871    -0.33500
S284        S  0.31209191  0.17714839  0.24611094    -0.33500
H285        H  0.30750704  0.17888437  0.28310537     0.27900
H286        H  0.44982242  0.26365058  0.20634054     0.27900
H287        H  0.40460077  0.25735147  0.29052529     0.18500
H288        H  0.35512451  0.17975718  0.20062870     0.18500
C289        C  0.40443560  0.30089970  0.36457550    -0.07300
C290        C  0.42645932  0.30952219  0.33889578    -0.18500
C291        C  0.45308618  0.31252928  0.34784430     0.09900
C292        C  0.45790521  0.30585195  0.38296872    -0.07300
C293        C  0.43676175  0.29872367  0.40913696    -0.18500
C294        C  0.41043706  0.29682050  0.40083973     0.09900
S295        S  0.47939794  0.32280104  0.31256160    -0.33500
S296        S  0.38526091  0.28906702  0.43751608    -0.33500
H297        H  0.39951937  0.28184706  0.46354025     0.27900
H298        H  0.99990844  0.33926113  0.32062413     0.27900
H299        H  0.42261692  0.31283512  0.31124464     0.18500
H300        H  0.44105615  0.29473705  0.43626921     0.18500
C301        C  0.27334290  0.25422138  0.44217522    -0.07300
C302        C  0.25732862  0.22576593  0.45482465    -0.18500
C303        C  0.23338446  0.21725359  0.47702007     0.09900
C304        C  0.22549942  0.23783219  0.48812554    -0.07300
C305        C  0.24257843  0.26681966  0.47735761    -0.18500
C306        C  0.26611418  0.27512751  0.45414371     0.09900
S307        S  0.21330230  0.17991735  0.49077473    -0.33500
S308        S  0.28623957  0.31263578  0.44090482    -0.33500
H309        H  0.31181754  0.31245099  0.43323831     0.27900
H310        H  0.22511015  0.16490234  0.96640592     0.27900
H311        H  0.26242614  0.20957735  0.44528607     0.18500
H312        H  0.23755248  0.28306986  0.48714183     0.18500
C313        C  0.24920339  0.22982583  0.23840854    -0.07300
C314        C  0.22263130  0.22771085  0.24725493    -0.18500
C315        C  0.20180842  0.22206710  0.22099079     0.09900
C316        C  0.20728056  0.21768110  0.18514385    -0.07300
C317        C  0.23374377  0.21932701  0.17664394    -0.18500
C318        C  0.25462785  0.22546559  0.20256906     0.09900
S319        S  0.16849189  0.22032448  0.23349127    -0.33500
S320        S  0.28759317  0.22735103  0.18807420    -0.33500
H321        H  0.29244634  0.21689669  0.22031574     0.27900
H322        H  0.17419563  0.22551929  0.27041913     0.27900
H323        H  0.21855789  0.23140145  0.27479219     0.18500
H324        H  0.23868176  0.21645852  0.14914920     0.18500
C325        C  0.24464720  0.12214957  0.44171293    -0.07300
C326        C  0.22462950  0.12262257  0.41782449    -0.18500
C327        C  0.23217558  0.14605833  0.39424979     0.09900
C328        C  0.26054821  0.16922878  0.39398907    -0.07300
C329        C  0.27992768  0.16913987  0.41918504    -0.18500
C330        C  0.27230696  0.14617757  0.44294930     0.09900
S331        S  0.20505617  0.14469587  0.36491874    -0.33500
S332        S  0.29917939  0.14846497  0.47331057    -0.33500
H333        H  0.29040838  0.11886308  0.47150423     0.27900
H334        H  0.22362720  0.16076432  0.33670930     0.27900
H335        H  0.20305506  0.10439431  0.41722858     0.18500
H336        H  0.30156549  0.18720571  0.42024970     0.18500
C337        C  0.30583312  0.33244198  0.29284605    -0.07300
C338        C  0.31687832  0.35734133  0.31427402    -0.18500
C339        C  0.31770190  0.38260663  0.30181383     0.09900
C340        C  0.30706195  0.38295841  0.26725947    -0.07300
C341        C  0.29868298  0.35895892  0.24467525    -0.18500
C342        C  0.29785146  0.33370824  0.25710422     0.09900
S343        S  0.33174258  0.41345223  0.33154620    -0.33500
S344        S  0.28592068  0.30316688  0.22716052    -0.33500
H345        H  0.28175422  0.31615098  0.19664972     0.27900
H346        H  0.33912297  0.43421141  0.30415755     0.27900
H347        H  0.32447441  0.35694655  0.34103825     0.18500
H348        H  0.29040350  0.35904537  0.21827791     0.18500
O349        O  0.28428014  0.28420979  0.81971566    -0.83000
C350        C  0.34897029  0.23238520  0.79001262     0.96300
O351        O  0.33398025  0.24125142  0.77478324    -0.72100
O352        O  0.29659292  0.25901031  0.76352791    -0.75700
Al353      Al  0.33120289  0.27264405  0.79317616     1.49000
C354        C  0.27061087  0.23925140  0.76840782     0.91600
O355        O  0.26396819  0.20895016  0.86515314    -0.81900
O356        O  0.30799919  0.24166556  0.90474085    -0.75500
Al357      Al  0.27767728  0.24749798  0.84115949     1.90100
O358        O  0.29949384  0.20130301  0.85173817    -0.74600
O359        O  0.35691287  0.27647738  0.87184455    -0.74400
O360        O  0.35134157  0.23359704  0.82405930    -0.80100
O361        O  0.36961265  0.28966307  0.81609379    -0.78300
O362        O  0.31215068  0.25301867  0.83140212    -1.14400
O363        O  0.33033720  0.30609958  0.80757317    -0.73600
C364        C  0.30737601  0.30675103  0.81040661     0.97100
C365        C  0.27540511  0.19274398  0.86616320     0.93500
Al366      Al  0.32797432  0.23936276  0.86097302     1.55600
O367        O  0.26235780  0.22725317  0.79858981    -0.78200
C368        C  0.37628743  0.29033587  0.84920185     0.97700
C369        C  0.29446178  0.25540176  0.91003604     0.92500
O370        O  0.29054063  0.26815285  0.88431759    -0.83600
O371        O  0.19044310  0.18544757  0.56775521    -0.83000
C372        C  0.12718898  0.23904660  0.54590294     0.96300
O373        O  0.14172900  0.23017134  0.52889354    -0.72100
O374        O  0.17779352  0.21066257  0.51284471    -0.75700
Al375      Al  0.14404338  0.19801688  0.54471080     1.49000
C376        C  0.20367547  0.23070757  0.51662442     0.91600
O377        O  0.21297770  0.26007810  0.61425741    -0.81900
O378        O  0.17004333  0.22678363  0.65740260    -0.75500
Al379      Al  0.19827935  0.22217285  0.58949088     1.90100
O380        O  0.17718632  0.26851217  0.60746361    -0.74600
O381        O  0.11972965  0.19235355  0.62502255    -0.74400
O382        O  0.12516108  0.23704241  0.58013242    -0.80100
O383        O  0.10648419  0.18150232  0.56912129    -0.78300
O384        O  0.16389132  0.21701114  0.58283398    -1.14400
O385        O  0.14427721  0.16412722  0.55718581    -0.73600
C386        C  0.16684357  0.16286685  0.56048537     0.97100
C387        C  0.20224864  0.27670333  0.61782914     0.93500
Al388      Al  0.14883116  0.23001974  0.61520786     1.55600
O389        O  0.21227277  0.24299585  0.54650898    -0.78200
C390        C  0.10011073  0.17975788  0.60252478     0.97700
C391        C  0.18466026  0.21386096  0.65946694     0.92500
O392        O  0.18679049  0.20117150  0.63224086    -0.83600
O393        O  0.18646273  0.47735458  0.48929802    -0.83000
C394        C  0.24345508  0.09535159  0.96174998     0.96300
O395        O  0.23555939  0.07172639  0.94576663    -0.72100
O396        O  0.21671487  0.01573520  0.93342044    -0.75700
Al397      Al  0.20307627  0.03802132  0.96192890     1.49000
C398        C  0.23382648  0.00626119  0.94070290     0.91600
O399        O  0.25743246  0.03032348  0.53616711    -0.81900
O400        O  0.22579878  0.04330083  0.57706443    -0.75500
Al401      Al  0.21945986  0.00717113  0.51258309     1.90100
O402        O  0.26683095  0.07500144  0.52567518    -0.74600
O403        O  0.19159923  0.05852544  0.54340613    -0.74400
O404        O  0.24198149  0.09594220  0.99585587    -0.80100
O405        O  0.18658209  0.06070328  0.98431094    -0.78300
O406        O  0.21554451  0.03729454  0.50270622    -1.14400
O407        O  0.16496847  0.50579747  0.97620458    -0.73600
C408        C  0.16217341  0.48128793  0.98240801     0.97100
C409        C  0.27477407  0.05766177  0.53668570     0.93500
Al410      Al  0.22879427  0.06627721  0.53358207     1.55600
O411        O  0.23954012  0.50839037  0.97402223    -0.78200
C412        C  0.17885563  0.06533408  0.52055580     0.97700
C413        C  0.21156775  0.01599824  0.58146913     0.92500
O414        O  0.20128933  0.49987177  0.55352653    -0.83600
O415        O  0.29407292  0.49208216  0.74018688    -0.83000
C416        C  0.23770763  0.37424965  0.71421343     0.96300
O417        O  0.24574285  0.39805522  0.69865817    -0.72100
O418        O  0.26501863  0.45327001  0.68401253    -0.75700
Al419      Al  0.27843480  0.43175043  0.71331177     1.49000
C420        C  0.24654724  0.46114817  0.69041340     0.91600
O421        O  0.22002943  0.44123876  0.78754106    -0.81900
O422        O  0.25240823  0.42845905  0.82770287    -0.75500
Al423      Al  0.25784256  0.46392120  0.76279766     1.90100
O424        O  0.21086160  0.39648537  0.77816142    -0.74600
O425        O  0.28542390  0.41097023  0.79248244    -0.74400
O426        O  0.24038165  0.37395168  0.74820266    -0.80100
O427        O  0.29515202  0.40987007  0.73519929    -0.78300
O428        O  0.26141144  0.43346249  0.75311389    -1.14400
O429        O  0.31275022  0.46510778  0.72384007    -0.73600
C430        C  0.31215674  0.98718390  0.72285838     0.97100
C431        C  0.20274186  0.41389955  0.78844283     0.93500
Al432      Al  0.24842293  0.40459467  0.78439738     1.55600
O433        O  0.23713658  0.46014905  0.72163706    -0.78200
C434        C  0.29772455  0.40460863  0.76802771     0.97700
C435        C  0.26599395  0.45592752  0.83125004     0.92500
O436        O  0.27908046  0.47083551  0.80459139    -0.83600
O437        O  0.48415589  0.28037091  0.89711042    -0.83000
C438        C  0.10023959  0.34938813  0.87401998     0.96300
O439        O  0.07703947  0.33439931  0.85763261    -0.72100
O440        O  0.02211097  0.29615347  0.84396303    -0.75700
Al441      Al  0.04241807  0.33011710  0.87610135     1.49000
C442        C  0.01673466  0.26996602  0.84690286     0.91600
O443        O  0.03920021  0.25995596  0.94327600    -0.81900
O444        O  0.04810743  0.30323081  0.98611077    -0.75500
Al445      Al  0.01453197  0.27383011  0.92014480     1.90100
O446        O  0.08149833  0.29717839  0.93326749    -0.74600
O447        O  0.06105840  0.35309306  0.95610097    -0.74400
O448        O  0.10021857  0.35000560  0.90828478    -0.80100
O449        O  0.06295007  0.36831204  0.90127895    -0.78300
O450        O  0.04259163  0.30946874  0.91304717    -1.14400
O451        O  0.50851656  0.32741407  0.88741588    -0.73600
C452        C  0.48503818  0.30413848  0.88915894     0.97100
C453        C  0.06645246  0.27200651  0.94560480     0.93500
Al454      Al  0.07076439  0.32493646  0.94377599     1.55600
O455        O  0.02120703  0.26093449  0.87600112    -0.78200
C456        C  0.06772381  0.37375846  0.93482132     0.97700
C457        C  0.02115180  0.28867660  0.99077807     0.92500
O458        O  0.00489622  0.28365446  0.96453183    -0.83600
O459        O  0.99162212  0.18866461  0.64980280    -0.83000
C460        C  0.37648362  0.12258231  0.62273587     0.96300
O461        O  0.39978509  0.13824485  0.60628329    -0.72100
O462        O  0.45575696  0.17542980  0.59249305    -0.75700
Al463      Al  0.43408755  0.14044018  0.62250393     1.49000
C464        C  0.46294296  0.20187969  0.59807760     0.91600
O465        O  0.43993090  0.20893612  0.69464483    -0.81900
O466        O  0.42844347  0.16421825  0.73610000    -0.75500
Al467      Al  0.46361665  0.19410553  0.67103834     1.90100
O468        O  0.39688677  0.17296699  0.68449776    -0.74600
O469        O  0.41347026  0.11355535  0.70194185    -0.74400
O470        O  0.37657752  0.12086558  0.65684174    -0.80100
O471        O  0.41283516  0.10195234  0.64519254    -0.78300
O472        O  0.43459605  0.15962363  0.66171456    -1.14400
O473        O  0.46764819  0.14011020  0.63466012    -0.73600
C474        C  0.99038580  0.16530771  0.63898279     0.97100
C475        C  0.41280846  0.19829045  0.69584876     0.93500
Al476      Al  0.40595298  0.14388985  0.69264372     1.55600
O477        O  0.45946213  0.21009632  0.62846013    -0.78200
C478        C  0.40736434  0.09440821  0.67811286     0.97700
C479        C  0.45538895  0.17824230  0.74057616     0.92500
O480        O  0.47112921  0.18122636  0.71412918    -0.83600
C481        C  0.46951364  0.19664122  0.77289060    -0.07300
C482        C  0.49975008  0.21114262  0.77391314    -0.18500
C483        C  0.01604962  0.23937768  0.79419901     0.09900
C484        C  0.00165559  0.24823183  0.81846785    -0.07300
C485        C  0.47101165  0.23029489  0.81889103    -0.18500
C486        C  0.45514845  0.20574663  0.79728790     0.09900
S487        S  0.05455969  0.25748012  0.79038330    -0.33500
S488        S  0.41683372  0.18729981  0.80227238    -0.33500
H489        H  0.41392676  0.15947277  0.80093370     0.27900
H490        H  0.06057924  0.28347815  0.80754994     0.27900
H491        H  0.01189325  0.20988363  0.75242615     0.18500
H492        H  0.45976238  0.23706577  0.83743314     0.18500
C493        C  0.00290911  0.27438440  0.52215051    -0.07300
C494        C  0.01913931  0.26929095  0.54734882    -0.18500
C495        C  0.00611885  0.24637014  0.57200683     0.09900
C496        C  0.47794017  0.22457795  0.57067767    -0.07300
C497        C  0.46298722  0.23642711  0.55364085    -0.18500
C498        C  0.47709949  0.26061710  0.53111781     0.09900
S499        S  0.02830774  0.24069269  0.60333347    -0.33500
S500        S  0.45582969  0.27469927  0.51166809    -0.33500
H501        H  0.47586980  0.30120346  0.00275065     0.27900
H502        H  0.05397441  0.26632720  0.59575592     0.27900
H503        H  0.04223643  0.28204054  0.54620661     0.18500
H504        H  0.44020094  0.22704392  0.55839378     0.18500
C505        C  0.12664364  0.36739096  0.85219289    -0.07300
C506        C  0.12821059  0.35786285  0.81735134    -0.18500
C507        C  0.15144506  0.37425125  0.79442722     0.09900
C508        C  0.17428653  0.40101348  0.80625645    -0.07300
C509        C  0.17221348  0.41136830  0.84030694    -0.18500
C510        C  0.14870989  0.39497217  0.86329490     0.09900
S511        S  0.15092497  0.35947863  0.75043885    -0.33500
S512        S  0.14746984  0.40979327  0.90649365    -0.33500
H513        H  0.16812961  0.43863295  0.89872677     0.27900
H514        H  0.16821440  0.38635667  0.73360283     0.27900
H515        H  0.11117396  0.33724960  0.80781413     0.18500
H516        H  0.18987566  0.43154755  0.84983077     0.18500
C517        C  0.38868321  0.06359749  0.68905251    -0.07300
C518        C  0.38205562  0.05801474  0.72598893    -0.18500
C519        C  0.35788337  0.03283526  0.73793339     0.09900
C520        C  0.33937906  0.01276028  0.71262096    -0.07300
C521        C  0.34744721  0.01651340  0.67621485    -0.18500
C522        C  0.37210332  0.04134471  0.66420746     0.09900
S523        S  0.35196478  0.02759754  0.78569207    -0.33500
S524        S  0.38019048  0.04356386  0.61686024    -0.33500
H525        H  0.40986018  0.05607669  0.62200694     0.27900
H526        H  0.33766768  0.99715858  0.78472078     0.27900
H527        H  0.39499128  0.07406251  0.74585132     0.18500
H528        H  0.33399271  0.00027271  0.65681067     0.18500
C529        C  0.21946802  0.50063458  0.61072648    -0.07300
C530        C  0.21744068  0.47341826  0.60416120    -0.18500
C531        C  0.22619102  0.46008730  0.62935846     0.09900
C532        C  0.23694709  0.47380673  0.66239579    -0.07300
C533        C  0.23845188  0.00087587  0.66867213    -0.18500
C534        C  0.23039172  0.01561050  0.64424432     0.09900
S535        S  0.22278137  0.42549007  0.61795039    -0.33500
S536        S  0.24005446  0.05283379  0.65307778    -0.33500
H537        H  0.25622421  0.05647055  0.68413297     0.27900
H538        H  0.21458264  0.41375766  0.65267953     0.27900
H539        H  0.20984074  0.46262530  0.57856521     0.18500
H540        H  0.25055747  0.01202994  0.69232688     0.18500
C541        C  0.26118379  0.47068305  0.86267298    -0.07300
C542        C  0.24444792  0.45360318  0.89154234    -0.18500
C543        C  0.23401379  0.46500599  0.91798955     0.09900
C544        C  0.23967236  0.49387885  0.91505225    -0.07300
C545        C  0.25858168  0.00974081  0.88361489    -0.18500
C546        C  0.26842150  0.50051795  0.86158197     0.09900
S547        S  0.21277270  0.44229451  0.95485247    -0.33500
S548        S  0.29050812  0.02362967  0.82163945    -0.33500
H549        H  0.29518846  0.55141610  0.84377267     0.27900
H550        H  0.21055283  0.41629074  0.94205640     0.27900
H551        H  0.23884660  0.43104787  0.89283538     0.18500
H552        H  0.26206980  0.03160159  0.88165636     0.18500
C553        C  0.30247112  0.07039325  0.55592064    -0.07300
C554        C  0.30227196  0.06286949  0.59206946    -0.18500
C555        C  0.32556124  0.07952253  0.61485971     0.09900
C556        C  0.34995810  0.10462394  0.60122640    -0.07300
C557        C  0.35039805  0.11121223  0.56448419    -0.18500
C558        C  0.32717534  0.09439709  0.54190709     0.09900
S559        S  0.32310031  0.06816035  0.66108374    -0.33500
S560        S  0.32980423  0.10279508  0.49464885    -0.33500
H561        H  0.35461197  0.13011521  0.49665293     0.27900
H562        H  0.30058244  0.03968477  0.65623637     0.27900
H563        H  0.28313742  0.04471045  0.60298534     0.18500
H564        H  0.36917108  0.12957451  0.55318111     0.18500
C565        C  0.13471108  0.45518315  0.97354779    -0.07300
C566        C  0.12086520  0.45466845  0.94133368    -0.18500
C567        C  0.09692120  0.42920982  0.92912314     0.09900
C568        C  0.08637500  0.40353384  0.94956355    -0.07300
C569        C  0.09854323  0.40529543  0.98372599    -0.18500
C570        C  0.12274010  0.43045331  0.99551282     0.09900
S571        S  0.08167958  0.43072082  0.88685968    -0.33500
S572        S  0.13835396  0.43054950  0.03841832    -0.33500
H573        H  0.11864886  0.40192127  0.04838545     0.27900
H574        H  0.05342211  0.41073586  0.89707125     0.27900
H575        H  0.12958478  0.47388798  0.92464782     0.18500
H576        H  0.09041105  0.38622310  0.00049656     0.18500
C577        C  0.07000636  0.16848948  0.61475448    -0.07300
C578        C  0.04857876  0.15904840  0.58858493    -0.18500
C579        C  0.02187602  0.15627449  0.59645356     0.09900
C580        C  0.01665239  0.16426493  0.63077351    -0.07300
C581        C  0.03696438  0.17159936  0.65767252    -0.18500
C582        C  0.06320086  0.17288638  0.65056850     0.09900
S583        S  0.99620745  0.14490197  0.56073361    -0.33500
S584        S  0.08726951  0.18033300  0.68790140    -0.33500
H585        H  0.07265382  0.18818740  0.71312422     0.27900
H586        H  0.47769748  0.11857205  0.58007820     0.27900
H587        H  0.05303378  0.15514618  0.56129234     0.18500
H588        H  0.03210170  0.17626312  0.68436593     0.18500
C589        C  0.08154484  0.26035739  0.96828180    -0.07300
C590        C  0.11096025  0.27913800  0.97486449    -0.18500
C591        C  0.12603164  0.27295181  0.00046993     0.09900
C592        C  0.11105666  0.24942627  0.52427131    -0.07300
C593        C  0.08096611  0.23419147  0.52555088    -0.18500
C594        C  0.06764050  0.23387144  0.98749582     0.09900
S595        S  0.16342109  0.29879591  0.00630656    -0.33500
S596        S  0.02608823  0.21729429  0.50139208    -0.33500
H597        H  0.02887944  0.18628905  0.00307191     0.27900
H598        H  0.16943622  0.28939699  0.52821443     0.27900
H599        H  0.12250762  0.29954586  0.96068177     0.18500
H600        H  0.07036287  0.21741591  0.54562632     0.18500
C601        C  0.21589768  0.30313062  0.64027991    -0.07300
C602        C  0.22180298  0.30033787  0.67634254    -0.18500
C603        C  0.22733585  0.32216566  0.70191034     0.09900
C604        C  0.22797287  0.34800769  0.69089137    -0.07300
C605        C  0.22226933  0.35058628  0.65452862    -0.18500
C606        C  0.21603269  0.32852870  0.62946528     0.09900
S607        S  0.23224661  0.31588376  0.74833686    -0.33500
S608        S  0.20810218  0.33288752  0.58355237    -0.33500
H609        H  0.21353359  0.36157362  0.58678652     0.27900
H610        H  0.23187353  0.28943778  0.74316033     0.27900
H611        H  0.22033221  0.28020505  0.68492202     0.18500
H612        H  0.22254618  0.37004382  0.64552891     0.18500
C613        C  0.16569303  0.13509122  0.55304410    -0.07300
C614        C  0.15342364  0.12059863  0.52071389    -0.18500
C615        C  0.15475727  0.09588745  0.51026436     0.09900
C616        C  0.16823812  0.08506411  0.53297771    -0.07300
C617        C  0.17754044  0.09801079  0.56716005    -0.18500
C618        C  0.17699306  0.12315523  0.57700318     0.09900
S619        S  0.14153312  0.07627344  0.96610933    -0.33500
S620        S  0.19109115  0.14008462  0.61993837    -0.33500
H621        H  0.19823751  0.11955803  0.63259566     0.27900
H622        H  0.13453378  0.04841473  0.97811199     0.27900
H623        H  0.14396987  0.12944286  0.50264633     0.18500
H624        H  0.18729603  0.08973896  0.58549532     0.18500
C625        C  0.36534277  0.22307141  0.76687557    -0.07300
C626        C  0.39537940  0.23915557  0.76714178    -0.18500
C627        C  0.41193157  0.23436275  0.74138228     0.09900
C628        C  0.39825206  0.21208382  0.71555315    -0.07300
C629        C  0.36809301  0.19750081  0.71423416    -0.18500
C630        C  0.35170052  0.20241959  0.73958833     0.09900
S631        S  0.45009584  0.25755145  0.74278443    -0.33500
S632        S  0.31330320  0.18064312  0.73645841    -0.33500
H633        H  0.30756010  0.18104342  0.77335158     0.27900
H634        H  0.45314879  0.26077018  0.70520815     0.27900
H635        H  0.40599625  0.25629126  0.78675084     0.18500
H636        H  0.35684965  0.18071337  0.69439013     0.18500
C637        C  0.40644443  0.30180014  0.86115612    -0.07300
C638        C  0.42782428  0.30861490  0.83500437    -0.18500
C639        C  0.45409134  0.31062384  0.84390144     0.09900
C640        C  0.45879043  0.30470767  0.87940390    -0.07300
C641        C  0.43865979  0.30024811  0.90607838    -0.18500
C642        C  0.41302634  0.29976049  0.89776182     0.09900
S643        S  0.48078890  0.31898342  0.80928333    -0.33500
S644        S  0.38922865  0.29629743  0.93457005    -0.33500
H645        H  0.40750997  0.29882333  0.96285450     0.27900
H646        H  0.99930552  0.33592278  0.82377463     0.27900
H647        H  0.42335371  0.31067249  0.80719550     0.18500
H648        H  0.44314031  0.29714873  0.93351739     0.18500
C649        C  0.27616366  0.25009014  0.94201497    -0.07300
C650        C  0.25662934  0.22104864  0.94982201    -0.18500
C651        C  0.23148725  0.21320283  0.96938707     0.09900
C652        C  0.22620496  0.23493119  0.98324666    -0.07300
C653        C  0.24656695  0.26413277  0.97708213    -0.18500
C654        C  0.27115910  0.27187827  0.95629284     0.09900
S655        S  0.20646553  0.17531552  0.97601625    -0.33500
S656        S  0.29538829  0.30988046  0.94866646    -0.33500
H657        H  0.31953037  0.30696187  0.94112549     0.27900
H658        H  0.23284307  0.17130716  0.47867753     0.27900
H659        H  0.25996422  0.20425444  0.93825634     0.18500
H660        H  0.24339375  0.28105723  0.98888317     0.18500
C661        C  0.24858099  0.23170950  0.74033934    -0.07300
C662        C  0.22131548  0.22718715  0.75087060    -0.18500
C663        C  0.19970368  0.22117424  0.72554891     0.09900
C664        C  0.20519432  0.21905484  0.68899437    -0.07300
C665        C  0.23242258  0.22340491  0.67878184    -0.18500
C666        C  0.25394206  0.22968654  0.70372675     0.09900
S667        S  0.16519534  0.21545280  0.74005565    -0.33500
S668        S  0.28745420  0.23417258  0.68700759    -0.33500
H669        H  0.29225542  0.22080632  0.71655353     0.27900
H670        H  0.17185646  0.22124724  0.77670767     0.27900
H671        H  0.21713634  0.22891022  0.77902784     0.18500
H672        H  0.23732442  0.22219912  0.65076462     0.18500
C673        C  0.25140116  0.12139098  0.93970043    -0.07300
C674        C  0.23018383  0.12204996  0.91830115    -0.18500
C675        C  0.23673395  0.14495595  0.89423165     0.09900
C676        C  0.26524234  0.16755571  0.89099528    -0.07300
C677        C  0.28608080  0.16713861  0.91347761    -0.18500
C678        C  0.27954182  0.14454024  0.93757844     0.09900
S679        S  0.20811459  0.14366719  0.86806443    -0.33500
S680        S  0.30820517  0.14636840  0.96428961    -0.33500
H681        H  0.29767867  0.11637333  0.96611089     0.27900
H682        H  0.22499848  0.15830887  0.83795835     0.27900
H683        H  0.20837235  0.10434757  0.92005517     0.18500
H684        H  0.30796654  0.18469035  0.91226478     0.18500
C685        C  0.30761222  0.33341623  0.79902372    -0.07300
C686        C  0.31395598  0.35555661  0.82397911    -0.18500
C687        C  0.31513225  0.38148282  0.81350315     0.09900
C688        C  0.30899725  0.38504219  0.77747678    -0.07300
C689        C  0.30555192  0.36401612  0.75203213    -0.18500
C690        C  0.30480541  0.33832631  0.76238357     0.09900
S691        S  0.32437866  0.40910322  0.84730348    -0.33500
S692        S  0.29876375  0.31139025  0.72863437    -0.33500
H693        H  0.29822735  0.32715136  0.69865061     0.27900
H694        H  0.33556509  0.43237620  0.82285950     0.27900
H695        H  0.31797652  0.35262141  0.85171462     0.18500
H696        H  0.30096279  0.36652077  0.72442774     0.18500
O697        O  0.28308024  0.78412549  0.31807545    -0.83000
C698        C  0.35097137  0.73542458  0.29328364     0.96300
O699        O  0.33606866  0.74401629  0.27720499    -0.72100
O700        O  0.29747270  0.75988987  0.26416336    -0.75700
Al701      Al  0.33190099  0.77486063  0.29449376     1.49000
C702        C  0.27192693  0.73908450  0.26886118     0.91600
O703        O  0.26498656  0.71070830  0.36659734    -0.81900
O704        O  0.30871375  0.74616065  0.40624395    -0.75500
Al705      Al  0.27771714  0.74838739  0.34119848     1.90100
O706        O  0.30164809  0.70456399  0.35578354    -0.74600
O707        O  0.35753605  0.78103598  0.37352020    -0.74400
O708        O  0.35313682  0.73721243  0.32740966    -0.80100
O709        O  0.37019392  0.79304393  0.31757693    -0.78300
O710        O  0.31286865  0.75533363  0.33283600    -1.14400
O711        O  0.32950949  0.80768973  0.30820406    -0.73600
C712        C  0.30593506  0.80724983  0.30959561     0.97100
C713        C  0.27666492  0.69478314  0.36802603     0.93500
Al714      Al  0.32922087  0.74321865  0.36360605     1.55600
O715        O  0.26402623  0.72701368  0.29902531    -0.78200
C716        C  0.37693205  0.79431716  0.35070388     0.97700
C717        C  0.29417061  0.75901587  0.41042681     0.92500
O718        O  0.28881812  0.76981078  0.38375888    -0.83600
O719        O  0.19207970  0.68590070  0.06938872    -0.83000
C720        C  0.13122077  0.74239653  0.04609376     0.96300
O721        O  0.14622228  0.73407712  0.02906026    -0.72100
O722        O  0.18200816  0.71352839  0.01328600    -0.75700
Al723      Al  0.14761141  0.70108393  0.04443497     1.49000
C724        C  0.20831513  0.73214335  0.01827001     0.91600
O725        O  0.21630842  0.76060457  0.11592794    -0.81900
O726        O  0.17263421  0.72857743  0.15805282    -0.75500
Al727      Al  0.20080994  0.72264062  0.09108173     1.90100
O728        O  0.18177826  0.77085592  0.10778602    -0.74600
O729        O  0.12242751  0.69547275  0.12479179    -0.74400
O730        O  0.12937720  0.74045726  0.08027866    -0.80100
O731        O  0.10967966  0.68484345  0.06858134    -0.78300
O732        O  0.16713689  0.71908402  0.08318809    -1.14400
O733        O  0.14658883  0.66634257  0.05584893    -0.73600
C734        C  0.16857269  0.66418252  0.06007962     0.97100
C735        C  0.20646728  0.77804247  0.11883034     0.93500
Al736      Al  0.15238904  0.73269577  0.11535951     1.55600
O737        O  0.21674785  0.74345586  0.04865613    -0.78200
C738        C  0.10301333  0.68294327  0.10198656     0.97700
C739        C  0.18610473  0.71451233  0.16046162     0.92500
O740        O  0.18752598  0.70127950  0.13342082    -0.83600
O741        O  0.18583230  0.97753525  0.99069474    -0.83000
C742        C  0.24319845  0.59525872  0.46099735     0.96300
O743        O  0.23570970  0.57162027  0.44517431    -0.72100
O744        O  0.21668328  0.51561785  0.43214148    -0.75700
Al745      Al  0.20301927  0.53774735  0.46096258     1.49000
C746        C  0.23416561  0.50657684  0.43915386     0.91600
O747        O  0.25737481  0.52944656  0.03905714    -0.81900
O748        O  0.22712172  0.54527860  0.07788895    -0.75500
Al749      Al  0.21936792  0.50704601  0.01522506     1.90100
O750        O  0.26858800  0.57435636  0.02630477    -0.74600
O751        O  0.19472735  0.56205574  0.04259519    -0.74400
O752        O  0.24065690  0.59570172  0.49503500    -0.80100
O753        O  0.18624812  0.56026561  0.48349059    -0.78300
O754        O  0.21714512  0.53786403  0.00366635    -1.14400
O755        O  0.16322282  0.00418272  0.47672067    -0.73600
C756        C  0.16146633  0.98001564  0.48172876     0.97100
C757        C  0.27556656  0.55657996  0.03846945     0.93500
Al758      Al  0.23123449  0.56765782  0.03356502     1.55600
O759        O  0.23967884  0.01068659  0.47059369    -0.78200
C760        C  0.18203789  0.56809025  0.01875331     0.97700
C761        C  0.21194749  0.51813921  0.08293423     0.92500
O762        O  0.20033022  0.00042192  0.05466535    -0.83600
O763        O  0.29406732  0.99360132  0.24021830    -0.83000
C764        C  0.23952543  0.87615602  0.21300609     0.96300
O765        O  0.24663477  0.89984928  0.19760318    -0.72100
O766        O  0.26551331  0.95514128  0.18358970    -0.75700
Al767      Al  0.27930822  0.93379317  0.21224621     1.49000
C768        C  0.24658856  0.96227812  0.19034962     0.91600
O769        O  0.22040612  0.94150289  0.28706432    -0.81900
O770        O  0.25401118  0.92955742  0.32710607    -0.75500
Al771      Al  0.25807242  0.96500676  0.26262635     1.90100
O772        O  0.21266637  0.89720844  0.27786575    -0.74600
O773        O  0.28788764  0.91354186  0.29065467    -0.74400
O774        O  0.24255162  0.87594909  0.24693699    -0.80100
O775        O  0.29642322  0.91203737  0.23303259    -0.78300
O776        O  0.26242493  0.93506130  0.25247047    -1.14400
O777        O  0.31335122  0.96725827  0.22314056    -0.73600
C778        C  0.31361300  0.48761456  0.22283299     0.97100
C779        C  0.20371246  0.91404786  0.28755060     0.93500
Al780      Al  0.25035775  0.90619681  0.28349682     1.55600
O781        O  0.23717439  0.96087665  0.22161956    -0.78200
C782        C  0.29927023  0.90657813  0.26562576     0.97700
C783        C  0.26694076  0.95696993  0.33108766     0.92500
O784        O  0.27930430  0.97237369  0.30444146    -0.83600
O785        O  0.48418774  0.78115570  0.39826674    -0.83000
C786        C  0.10165240  0.84779085  0.37205889     0.96300
O787        O  0.07849337  0.83323221  0.35556546    -0.72100
O788        O  0.02374859  0.79580845  0.34123235    -0.75700
Al789      Al  0.04416581  0.82932883  0.37404332     1.49000
C790        C  0.01846779  0.76963066  0.34379021     0.91600
O791        O  0.03963776  0.75789910  0.43998380    -0.81900
O792        O  0.04871529  0.80109119  0.48339879    -0.75500
Al793      Al  0.01571221  0.77254421  0.41669253     1.90100
O794        O  0.08234605  0.79468283  0.43081592    -0.74600
O795        O  0.06289997  0.85117867  0.45454145    -0.74400
O796        O  0.10173638  0.84801218  0.40635026    -0.80100
O797        O  0.06473310  0.86710811  0.40009326    -0.78300
O798        O  0.04397807  0.80812105  0.41055952    -1.14400
O799        O  0.50737531  0.82856727  0.39125457    -0.73600
C800        C  0.48429407  0.80483524  0.39182674     0.97100
C801        C  0.06681084  0.76940475  0.44262713     0.93500
Al802      Al  0.07201355  0.82281936  0.44154233     1.55600
O803        O  0.02314139  0.76044904  0.37258788    -0.78200
C804        C  0.06908577  0.87200982  0.43379481     0.97700
C805        C  0.02167234  0.78717480  0.48767648     0.92500
O806        O  0.00575147  0.78177920  0.46096370    -0.83600
O807        O  0.99250671  0.68787831  0.14971282    -0.83000
C808        C  0.37664887  0.62252098  0.12460392     0.96300
O809        O  0.39985573  0.63854674  0.10820563    -0.72100
O810        O  0.45544323  0.67592267  0.09392267    -0.75700
Al811      Al  0.43430519  0.64119744  0.12430835     1.49000
C812        C  0.46253773  0.70236097  0.09928743     0.91600
O813        O  0.43984547  0.70988543  0.19578651    -0.81900
O814        O  0.42872764  0.66598920  0.23774526    -0.75500
Al815      Al  0.46373295  0.69503968  0.17233238     1.90100
O816        O  0.39679882  0.67391092  0.18571167    -0.74600
O817        O  0.41368984  0.61463494  0.20421438    -0.74400
O818        O  0.37667046  0.62122086  0.15876808    -0.80100
O819        O  0.41365115  0.60308624  0.14747180    -0.78300
O820        O  0.43473526  0.66051948  0.16328703    -1.14400
O821        O  0.46802741  0.64113560  0.13627752    -0.73600
C822        C  0.99180299  0.66443597  0.14047949     0.97100
C823        C  0.41268861  0.69914771  0.19742385     0.93500
Al824      Al  0.40607603  0.64491187  0.19438972     1.55600
O825        O  0.45953509  0.71086329  0.12969939    -0.78200
C826        C  0.40818869  0.59557291  0.18037161     0.97700
C827        C  0.45574497  0.68028283  0.24177246     0.92500
O828        O  0.47112648  0.68215819  0.21540702    -0.83600
C829        C  0.47031041  0.70033579  0.27277833    -0.07300
C830        C  0.50059541  0.71620678  0.27206830    -0.18500
C831        C  0.01649260  0.73607050  0.29456898     0.09900
C832        C  0.00295704  0.74788768  0.31567122    -0.07300
C833        C  0.47175147  0.73381315  0.31908304    -0.18500
C834        C  0.45596240  0.70902337  0.29778163     0.09900
S835        S  0.05479377  0.75114576  0.29372845    -0.33500
S836        S  0.41778759  0.68954696  0.30427412    -0.33500
H837        H  0.41585146  0.66213565  0.30317483     0.27900
H838        H  0.06173068  0.77958889  0.30292895     0.27900
H839        H  0.01107269  0.70398294  0.25581388     0.18500
H840        H  0.46053324  0.73999402  0.33842288     0.18500
C841        C  0.00557197  0.77388288  0.02410925    -0.07300
C842        C  0.02098795  0.76343875  0.04310440    -0.18500
C843        C  0.00714654  0.73928516  0.06576850     0.09900
C844        C  0.47713948  0.72478812  0.07159261    -0.07300
C845        C  0.46146115  0.73485975  0.05258600    -0.18500
C846        C  0.47513871  0.75879315  0.02957747     0.09900
S847        S  0.02844943  0.72725560  0.08951679    -0.33500
S848        S  0.45299970  0.77088982  0.00791327    -0.33500
H849        H  0.47717096  0.80033438  0.50602855     0.27900
H850        H  0.05534677  0.75122517  0.08149832     0.27900
H851        H  0.04377127  0.77301312  0.03837824     0.18500
H852        H  0.43846930  0.72436893  0.05625619     0.18500
C853        C  0.12782657  0.86598619  0.35026871    -0.07300
C854        C  0.13068548  0.85539608  0.31674940    -0.18500
C855        C  0.15358235  0.87218640  0.29360428     0.09900
C856        C  0.17487143  0.90028529  0.30420265    -0.07300
C857        C  0.17113638  0.91164282  0.33659408    -0.18500
C858        C  0.14777156  0.89490295  0.35948623     0.09900
S859        S  0.15463790  0.85625850  0.25100509    -0.33500
S860        S  0.14353452  0.91104769  0.39989710    -0.33500
H861        H  0.16245907  0.94000154  0.39024594     0.27900
H862        H  0.17026750  0.88274958  0.23266069     0.27900
H863        H  0.11487613  0.83375735  0.30842937     0.18500
H864        H  0.18740283  0.93302021  0.34502520     0.18500
C865        C  0.39017236  0.56461504  0.19099245    -0.07300
C866        C  0.38324399  0.55859938  0.22777375    -0.18500
C867        C  0.35930545  0.53295693  0.23913676     0.09900
C868        C  0.34122683  0.51304150  0.21337435    -0.07300
C869        C  0.34983081  0.51716819  0.17717167    -0.18500
C870        C  0.37435984  0.54236718  0.16575428     0.09900
S871        S  0.35324194  0.52678953  0.28673206    -0.33500
S872        S  0.38303414  0.54514041  0.11852815    -0.33500
H873        H  0.41269777  0.55827252  0.12419100     0.27900
H874        H  0.33905549  0.49637568  0.28480677     0.27900
H875        H  0.39571712  0.57460565  0.24791602     0.18500
H876        H  0.33677946  0.50104475  0.15742099     0.18500
C877        C  0.21815110  0.00109882  0.11198850    -0.07300
C878        C  0.21501193  0.97336765  0.10582207    -0.18500
C879        C  0.22430158  0.96023960  0.13055756     0.09900
C880        C  0.23649637  0.97464725  0.16278205    -0.07300
C881        C  0.24063801  0.50327114  0.16845067    -0.18500
C882        C  0.23195509  0.51790999  0.14477623     0.09900
S883        S  0.22009566  0.92524963  0.11937706    -0.33500
S884        S  0.24166055  0.55510394  0.15391633    -0.33500
H885        H  0.25896816  0.55899518  0.18388274     0.27900
H886        H  0.21404484  0.91432208  0.15463839     0.27900
H887        H  0.20638537  0.96212367  0.08072862     0.18500
H888        H  0.25311757  0.51439962  0.19187735     0.18500
C889        C  0.26190372  0.97109972  0.36303051    -0.07300
C890        C  0.24102013  0.95351787  0.38827642    -0.18500
C891        C  0.22999852  0.96536214  0.41336296     0.09900
C892        C  0.23869147  0.99519006  0.41202917    -0.07300
C893        C  0.25973116  0.50996699  0.38275435    -0.18500
C894        C  0.27296030  0.00168001  0.36482040     0.09900
S895        S  0.20537942  0.94231433  0.44761709    -0.33500
S896        S  0.29310940  0.52390978  0.32228490    -0.33500
H897        H  0.30623120  0.05271180  0.35296877     0.27900
H898        H  0.20162701  0.91588709  0.43406291     0.27900
H899        H  0.23277801  0.93035634  0.38779605     0.18500
H900        H  0.26396701  0.53210321  0.38087796     0.18500
C901        C  0.30335307  0.56897430  0.05741526    -0.07300
C902        C  0.30345735  0.56109346  0.09336146    -0.18500
C903        C  0.32654905  0.57812288  0.11628301     0.09900
C904        C  0.35047090  0.60376479  0.10290533    -0.07300
C905        C  0.35085831  0.61038903  0.06620401    -0.18500
C906        C  0.32778559  0.59340814  0.04355409     0.09900
S907        S  0.32430590  0.56676732  0.16244781    -0.33500
S908        S  0.32965337  0.60306346  0.99672694    -0.33500
H909        H  0.35731491  0.62727120  0.99728347     0.27900
H910        H  0.30310200  0.53776338  0.15706552     0.27900
H911        H  0.28456886  0.54257815  0.10418157     0.18500
H912        H  0.36926421  0.62927957  0.05516413     0.18500
C913        C  0.13415132  0.95364509  0.47335133    -0.07300
C914        C  0.11932185  0.95315708  0.44205979    -0.18500
C915        C  0.09554212  0.92749854  0.43004231     0.09900
C916        C  0.08647611  0.90160885  0.44950788    -0.07300
C917        C  0.09916237  0.90336891  0.48331082    -0.18500
C918        C  0.12295700  0.92887003  0.49512854     0.09900
S919        S  0.07885886  0.92891175  0.38894953    -0.33500
S920        S  0.13906762  0.92937175  0.53775330    -0.33500
H921        H  0.11719927  0.90243351  0.55022381     0.27900
H922        H  0.05129884  0.90715780  0.39924952     0.27900
H923        H  0.12718469  0.97254659  0.42583062     0.18500
H924        H  0.09197463  0.88411938  0.49955143     0.18500
C925        C  0.07273441  0.67104083  0.11420812    -0.07300
C926        C  0.05124156  0.66190322  0.08815530    -0.18500
C927        C  0.02402400  0.65753805  0.09688269     0.09900
C928        C  0.01841286  0.66408904  0.13182118    -0.07300
C929        C  0.03893192  0.67137180  0.15843642    -0.18500
C930        C  0.06554003  0.67367792  0.15056174     0.09900
S931        S  0.99791465  0.64582231  0.06168846    -0.33500
S932        S  0.08963340  0.68036762  0.18764271    -0.33500
H933        H  0.06982890  0.67492274  0.21561320     0.27900
H934        H  0.47745935  0.61686963  0.08362437     0.27900
H935        H  0.05588949  0.65915921  0.06047918     0.18500
H936        H  0.03405059  0.67537863  0.18546198     0.18500
C937        C  0.08136011  0.75693283  0.46495161    -0.07300
C938        C  0.11152119  0.77128509  0.46376245    -0.18500
C939        C  0.12759823  0.76675212  0.48971940     0.09900
C940        C  0.11412820  0.75185799  0.02486037    -0.07300
C941        C  0.08449680  0.73306392  0.02129662    -0.18500
C942        C  0.06732676  0.73595453  0.49228188     0.09900
S943        S  0.16605543  0.78730671  0.48544075    -0.33500
S944        S  0.03055817  0.71265486  0.99128889    -0.33500
H945        H  0.02703231  0.70332936  0.52812321     0.27900
H946        H  0.16841949  0.79730592  0.04108248     0.27900
H947        H  0.12299217  0.78726813  0.44305285     0.18500
H948        H  0.07437766  0.71374584  0.03777746     0.18500
C949        C  0.22035127  0.80409757  0.14168865    -0.07300
C950        C  0.21918486  0.79996480  0.17908771    -0.18500
C951        C  0.22402413  0.82236933  0.20332119     0.09900
C952        C  0.23116077  0.85007220  0.18980748    -0.07300
C953        C  0.23284245  0.85404614  0.15209386    -0.18500
C954        C  0.22721507  0.83139509  0.12816171     0.09900
S955        S  0.21931799  0.81443267  0.25092314    -0.33500
S956        S  0.22850242  0.83722538  0.08021658    -0.33500
H957        H  0.23737683  0.86696619  0.08162394     0.27900
H958        H  0.21271944  0.78532468  0.24859723     0.27900
H959        H  0.21272273  0.77854930  0.18928278     0.18500
H960        H  0.23845280  0.87501279  0.14105505     0.18500
C961        C  0.16710247  0.63651710  0.05130367    -0.07300
C962        C  0.16009775  0.62584247  0.01609957    -0.18500
C963        C  0.16137131  0.60122589  0.00512379     0.09900
C964        C  0.17008570  0.58701438  0.02990626    -0.07300
C965        C  0.17385001  0.59614091  0.06624214    -0.18500
C966        C  0.17294459  0.62096647  0.07695550     0.09900
S967        S  0.14528286  0.58032792  0.46339050    -0.33500
S968        S  0.17996572  0.63314446  0.12309370    -0.33500
H969        H  0.18110988  0.60908491  0.13678722     0.27900
H970        H  0.13584338  0.55155265  0.47393227     0.27900
H971        H  0.15469613  0.63747286  0.99662565     0.18500
H972        H  0.17965198  0.58511055  0.08603445     0.18500
C973        C  0.36692605  0.72509418  0.27080866    -0.07300
C974        C  0.39692725  0.74157651  0.26893314    -0.18500
C975        C  0.41264662  0.73602438  0.24262528     0.09900
C976        C  0.39826526  0.71261589  0.21838679    -0.07300
C977        C  0.36806336  0.69721117  0.21958769    -0.18500
C978        C  0.35249195  0.70296958  0.24537975     0.09900
S979        S  0.45070605  0.75987499  0.24103753    -0.33500
S980        S  0.31403002  0.68072810  0.24495641    -0.33500
H981        H  0.30979551  0.68287011  0.28196754     0.27900
H982        H  0.45191205  0.76177072  0.20327750     0.27900
H983        H  0.40810876  0.75965690  0.28710103     0.18500
H984        H  0.35619570  0.67941605  0.20121306     0.18500
C985        C  0.40705145  0.80512327  0.36237639    -0.07300
C986        C  0.42754067  0.80896614  0.33616116    -0.18500
C987        C  0.45300837  0.80939690  0.34540422     0.09900
C988        C  0.45793401  0.80508981  0.38151728    -0.07300
C989        C  0.43892463  0.80390442  0.40815641    -0.18500
C990        C  0.41398201  0.80473606  0.39920353     0.09900
S991        S  0.47860191  0.81435687  0.31059047    -0.33500
S992        S  0.39152350  0.80544411  0.43530725    -0.33500
H993        H  0.40948920  0.80780739  0.46390490     0.27900
H994        H  0.00201954  0.83565362  0.32106728     0.27900
H995        H  0.42288211  0.80992349  0.30811849     0.18500
H996        H  0.44377272  0.80245076  0.43600768     0.18500
C997        C  0.27716252  0.75520146  0.44341469    -0.07300
C998        C  0.26496266  0.72800018  0.45998541    -0.18500
C999        C  0.24097558  0.71829795  0.48245989     0.09900
C1000       C  0.22877323  0.73613272  0.48882801    -0.07300
C1001       C  0.24220513  0.76422106  0.47455396    -0.18500
C1002       C  0.26621032  0.77394467  0.45195899     0.09900
S1003       S  0.22622985  0.68296559  0.50270466    -0.33500
S1004       S  0.28188698  0.81041633  0.43483205    -0.33500
H1005       H  0.30937975  0.81400309  0.42939640     0.27900
H1006       H  0.25226969  0.68197968  0.99877649     0.27900
H1007       H  0.27292540  0.71338186  0.45326671     0.18500
H1008       H  0.23408557  0.77872864  0.48132087     0.18500
C1009       C  0.24971968  0.73081626  0.24095236    -0.07300
C1010       C  0.22219309  0.72538328  0.25173644    -0.18500
C1011       C  0.20066330  0.71978100  0.22650724     0.09900
C1012       C  0.20659661  0.71924719  0.18978947    -0.07300
C1013       C  0.23396038  0.72412474  0.17933586    -0.18500
C1014       C  0.25535733  0.72983178  0.20421807     0.09900
S1015       S  0.16574104  0.71266577  0.24123311    -0.33500
S1016       S  0.28916693  0.73524683  0.18726502    -0.33500
H1017       H  0.29458033  0.72209655  0.21657609     0.27900
H1018       H  0.17063912  0.71262038  0.27830737     0.27900
H1019       H  0.21780254  0.72632490  0.28001909     0.18500
H1020       H  0.23907442  0.72379420  0.15121166     0.18500
C1021       C  0.25243910  0.62149697  0.43858573    -0.07300
C1022       C  0.23482591  0.63417190  0.43672316    -0.18500
C1023       C  0.24003610  0.65603573  0.41143154     0.09900
C1024       C  0.26431922  0.66672073  0.38847866    -0.07300
C1025       C  0.28083637  0.65270749  0.38945666    -0.18500
C1026       C  0.27518613  0.63049043  0.41378863     0.09900
S1027       S  0.21418192  0.66812992  0.40859144    -0.33500
S1028       S  0.29822157  0.61475556  0.41190713    -0.33500
H1029       H  0.29401002  0.60532564  0.44771985     0.27900
H1030       H  0.21469608  0.66910141  0.37078411     0.27900
H1031       H  0.21609475  0.62604032  0.45398914     0.18500
H1032       H  0.29916730  0.65966199  0.37173749     0.18500
C1033       C  0.30539514  0.83340548  0.29775421    -0.07300
C1034       C  0.31730836  0.85804408  0.31977938    -0.18500
C1035       C  0.31898142  0.88396699  0.30829024     0.09900
C1036       C  0.30858531  0.88535807  0.27399440    -0.07300
C1037       C  0.29889227  0.86137314  0.25099810    -0.18500
C1038       C  0.29704406  0.83545460  0.26252964     0.09900
S1039       S  0.33429984  0.91445571  0.33856868    -0.33500
S1040       S  0.28350452  0.80507803  0.23207583    -0.33500
H1041       H  0.28206231  0.81965433  0.20136914     0.27900
H1042       H  0.34253385  0.93569568  0.31163213     0.27900
H1043       H  0.32520089  0.85701817  0.34613355     0.18500
H1044       H  0.29058205  0.86212698  0.22485655     0.18500
O1045       O  0.28392336  0.78353958  0.81590876    -0.83000
C1046       C  0.35053732  0.73271961  0.79279516     0.96300
O1047       O  0.33549780  0.74096984  0.77629324    -0.72100
O1048       O  0.29735488  0.75769691  0.76201577    -0.75700
Al1049     Al  0.33190826  0.77257550  0.79245086     1.49000
C1050       C  0.27146599  0.73775251  0.76721785     0.91600
O1051       O  0.26463452  0.71031376  0.86531249    -0.81900
O1052       O  0.30847784  0.74554435  0.90526993    -0.75500
Al1053     Al  0.27784607  0.74779533  0.83957494     1.90100
O1054       O  0.30089785  0.70323580  0.85553097    -0.74600
O1055       O  0.35767288  0.77965603  0.87171077    -0.74400
O1056       O  0.35259080  0.73496573  0.82691099    -0.80100
O1057       O  0.37036493  0.79064032  0.81557189    -0.78300
O1058       O  0.31277100  0.75392531  0.83127411    -1.14400
O1059       O  0.33019119  0.80611359  0.80479478    -0.73600
C1060       C  0.30684276  0.80617596  0.80636128     0.97100
C1061       C  0.27588536  0.69404052  0.86737736     0.93500
Al1062     Al  0.32885804  0.74183390  0.86262621     1.55600
O1063       O  0.26346808  0.72618595  0.79762847    -0.78200
C1064       C  0.37716308  0.79226345  0.84875583     0.97700
C1065       C  0.29423560  0.75877217  0.90911358     0.92500
O1066       O  0.28916685  0.76943496  0.88206214    -0.83600
O1067       O  0.19176438  0.68274274  0.56821538    -0.83000
C1068       C  0.12990657  0.73739381  0.54120346     0.96300
O1069       O  0.14457676  0.72813445  0.52542063    -0.72100
O1070       O  0.18071711  0.70855680  0.51195733    -0.75700
Al1071     Al  0.14637031  0.69599936  0.54266061     1.49000
C1072       C  0.20660567  0.72833090  0.51672679     0.91600
O1073       O  0.21459571  0.75739323  0.61377433    -0.81900
O1074       O  0.17115970  0.72594039  0.65555149    -0.75500
Al1075     Al  0.19955045  0.71937543  0.58945915     1.90100
O1076       O  0.18026843  0.76747908  0.60350113    -0.74600
O1077       O  0.12109308  0.69242161  0.62241134    -0.74400
O1078       O  0.12781223  0.73631728  0.57549289    -0.80100
O1079       O  0.10849804  0.67989533  0.56650470    -0.78300
O1080       O  0.16572353  0.71513866  0.58097455    -1.14400
O1081       O  0.14602404  0.66178857  0.55575883    -0.73600
C1082       C  0.16847406  0.66039844  0.55967401     0.97100
C1083       C  0.20472251  0.77482219  0.61556770     0.93500
Al1084     Al  0.15086828  0.72936200  0.61198970     1.55600
O1085       O  0.21495430  0.73996076  0.54696909    -0.78200
C1086       C  0.10183639  0.67879399  0.59978649     0.97700
C1087       C  0.18469538  0.71191433  0.65877295     0.92500
O1088       O  0.18614759  0.69833414  0.63206047    -0.83600
O1089       O  0.18324298  0.97846074  0.49153905    -0.83000
C1090       C  0.24132735  0.59602942  0.96248934     0.96300
O1091       O  0.23258831  0.57194868  0.94728269    -0.72100
O1092       O  0.21269822  0.51597497  0.93588234    -0.75700
Al1093     Al  0.19981659  0.53879917  0.96414889     1.49000
C1094       C  0.23024917  0.50706022  0.94284165     0.91600
O1095       O  0.26066074  0.52841182  0.53582273    -0.81900
O1096       O  0.22937952  0.54254031  0.57511258    -0.75500
Al1097     Al  0.22273757  0.50555756  0.51144301     1.90100
O1098       O  0.27096588  0.57332679  0.52440672    -0.74600
O1099       O  0.19604573  0.55801030  0.54002804    -0.74400
O1100       O  0.23920181  0.59729474  0.99646366    -0.80100
O1101       O  0.18394223  0.56202853  0.98589859    -0.78300
O1102       O  0.22000998  0.53623809  0.50060707    -1.14400
O1103       O  0.16839417  0.00492991  0.97284169    -0.73600
C1104       C  0.16535360  0.98030172  0.97841999     0.97100
C1105       C  0.27831223  0.55574683  0.53634949     0.93500
Al1106     Al  0.23314138  0.56537121  0.53134161     1.55600
O1107       O  0.24255335  0.00711885  0.97207411    -0.78200
C1108       C  0.18398231  0.56526590  0.51674428     0.97700
C1109       C  0.21484917  0.51529370  0.57964287     0.92500
O1110       O  0.19849638  0.00061005  0.55512933    -0.83600
O1111       O  0.29158050  0.98971469  0.73597421    -0.83000
C1112       C  0.23510267  0.87180915  0.71083523     0.96300
O1113       O  0.24106973  0.89524985  0.69561701    -0.72100
O1114       O  0.25978676  0.95041215  0.68068429    -0.75700
Al1115     Al  0.27453133  0.92917808  0.70811351     1.49000
C1116       C  0.24194024  0.95870485  0.68902415     0.91600
O1117       O  0.21960912  0.93917895  0.78719350    -0.81900
O1118       O  0.25333578  0.92672787  0.82463894    -0.75500
Al1119     Al  0.25630811  0.96170676  0.76031923     1.90100
O1120       O  0.20993476  0.89425103  0.77736931    -0.74600
O1121       O  0.28530226  0.90950829  0.78617373    -0.74400
O1122       O  0.23876037  0.87184736  0.74463306    -0.80100
O1123       O  0.29238558  0.90761868  0.72809984    -0.78300
O1124       O  0.25936992  0.93122479  0.74936981    -1.14400
O1125       O  0.30934562  0.96270681  0.71637186    -0.73600
C1126       C  0.31513587  0.48958093  0.72881638     0.97100
C1127       C  0.20234281  0.91187147  0.78859809     0.93500
Al1128     Al  0.24781897  0.90262964  0.78092879     1.55600
O1129       O  0.23389502  0.95791006  0.72091091    -0.78200
C1130       C  0.29645519  0.90283326  0.76058283     0.97700
C1131       C  0.26726068  0.95422847  0.82769004     0.92500
O1132       O  0.27935156  0.96870032  0.80038749    -0.83600
O1133       O  0.48478603  0.78047582  0.89894872    -0.83000
C1134       C  0.10089157  0.84822395  0.87601189     0.96300
O1135       O  0.07808195  0.83220247  0.85935542    -0.72100
O1136       O  0.02344969  0.79426071  0.84436726    -0.75700
Al1137     Al  0.04337348  0.82928324  0.87467488     1.49000
C1138       C  0.01725727  0.76804941  0.84971084     0.91600
O1139       O  0.03870702  0.76188059  0.94805324    -0.81900
O1140       O  0.04636045  0.80635338  0.98798549    -0.75500
Al1141     Al  0.01415377  0.77496653  0.92219598     1.90100
O1142       O  0.08100468  0.79925591  0.93832418    -0.74600
O1143       O  0.05968677  0.85534882  0.95379650    -0.74400
O1144       O  0.10006795  0.85054643  0.91005497    -0.80100
O1145       O  0.06372180  0.86837161  0.89759962    -0.78300
O1146       O  0.04243800  0.81013640  0.91375058    -1.14400
O1147       O  0.50876458  0.82734638  0.88803792    -0.73600
C1148       C  0.48539040  0.80397647  0.89008596     0.97100
C1149       C  0.06600947  0.77424450  0.95095710     0.93500
Al1150     Al  0.06984307  0.82686879  0.94539356     1.55600
O1151       O  0.02090033  0.76006434  0.88002560    -0.78200
C1152       C  0.06783021  0.87522990  0.93088555     0.97700
C1153       C  0.01931337  0.79155415  0.99156872     0.92500
O1154       O  0.00399220  0.78670793  0.96452251    -0.83600
O1155       O  0.99441883  0.68697386  0.65145069    -0.83000
C1156       C  0.37870728  0.62184085  0.62454099     0.96300
O1157       O  0.40194860  0.63760343  0.60809975    -0.72100
O1158       O  0.45738094  0.67489509  0.59367991    -0.75700
Al1159     Al  0.43637022  0.64034747  0.62433665     1.49000
C1160       C  0.46407525  0.70127963  0.59860530     0.91600
O1161       O  0.44193803  0.70945745  0.69575657    -0.81900
O1162       O  0.43134932  0.66550893  0.73733080    -0.75500
Al1163     Al  0.46574368  0.69471990  0.67163872     1.90100
O1164       O  0.39897220  0.67333088  0.68582608    -0.74600
O1165       O  0.41678257  0.61494744  0.70420649    -0.74400
O1166       O  0.37881848  0.62061661  0.65875044    -0.80100
O1167       O  0.41557093  0.60215256  0.64792465    -0.78300
O1168       O  0.43688355  0.66003956  0.66303028    -1.14400
O1169       O  0.47024917  0.64061044  0.63641753    -0.73600
C1170       C  0.99266817  0.66362362  0.63984237     0.97100
C1171       C  0.41476581  0.69849084  0.69782928     0.93500
Al1172     Al  0.40850064  0.64453205  0.69430033     1.55600
O1173       O  0.46083757  0.70996117  0.62884009    -0.78200
C1174       C  0.41050148  0.59532967  0.68109170     0.97700
C1175       C  0.45836030  0.67963074  0.74130931     0.92500
O1176       O  0.47379367  0.68229423  0.71464556    -0.83600
C1177       C  0.47282738  0.69839718  0.77324173    -0.07300
C1178       C  0.50301545  0.71569818  0.77171673    -0.18500
C1179       C  0.01609159  0.74495673  0.78978863     0.09900
C1180       C  0.00279018  0.74537517  0.82217326    -0.07300
C1181       C  0.47334612  0.72811462  0.82371726    -0.18500
C1182       C  0.45809304  0.70441475  0.80069162     0.09900
S1183       S  0.05160129  0.77298779  0.77747372    -0.33500
S1184       S  0.41998858  0.68345373  0.80744059    -0.33500
H1185       H  0.41903680  0.65666084  0.80287830     0.27900
H1186       H  0.06248310  0.77949412  0.81256190     0.27900
H1187       H  0.01213852  0.72293602  0.74055544     0.18500
H1188       H  0.46181280  0.73260700  0.84451743     0.18500
C1189       C  0.00825144  0.77219825  0.52187320    -0.07300
C1190       C  0.02414991  0.76444175  0.54436384    -0.18500
C1191       C  0.01059149  0.74224637  0.56980925     0.09900
C1192       C  0.47835720  0.72337808  0.57048769    -0.07300
C1193       C  0.46298345  0.73483302  0.55360464    -0.18500
C1194       C  0.47654096  0.75836545  0.53001168     0.09900
S1195       S  0.03216795  0.73311400  0.59793760    -0.33500
S1196       S  0.45475093  0.77166077  0.51012782    -0.33500
H1197       H  0.47466309  0.80004037  0.00519462     0.27900
H1198       H  0.05905177  0.75423513  0.58478157     0.27900
H1199       H  0.04702851  0.77434225  0.54032478     0.18500
H1200       H  0.44031924  0.72556950  0.55914571     0.18500
C1201       C  0.12751671  0.86576128  0.85438533    -0.07300
C1202       C  0.12771928  0.85754145  0.81837566    -0.18500
C1203       C  0.15066889  0.87396870  0.79519839     0.09900
C1204       C  0.17462976  0.89937320  0.80787687    -0.07300
C1205       C  0.17433163  0.90828426  0.84338684    -0.18500
C1206       C  0.15116754  0.89184717  0.86678390     0.09900
S1207       S  0.14828123  0.86107114  0.74966648    -0.33500
S1208       S  0.15290349  0.90449523  0.91227871    -0.33500
H1209       H  0.17381952  0.93343927  0.90559421     0.27900
H1210       H  0.16654975  0.88838184  0.73441536     0.27900
H1211       H  0.10972871  0.83802402  0.80791550     0.18500
H1212       H  0.19308721  0.92722725  0.85352119     0.18500
C1213       C  0.39189924  0.56488747  0.69326625    -0.07300
C1214       C  0.38496618  0.56053333  0.73026716    -0.18500
C1215       C  0.36052459  0.53596553  0.74286397     0.09900
C1216       C  0.34232428  0.51499909  0.71817369    -0.07300
C1217       C  0.35075203  0.51751101  0.68192967    -0.18500
C1218       C  0.37548366  0.54192319  0.66927139     0.09900
S1219       S  0.35376881  0.53290397  0.79057788    -0.33500
S1220       S  0.38396535  0.54269636  0.62220187    -0.33500
H1221       H  0.41365030  0.55597893  0.62776496     0.27900
H1222       H  0.33866356  0.50247698  0.79177203     0.27900
H1223       H  0.39774537  0.57720577  0.74958393     0.18500
H1224       H  0.33749673  0.50060290  0.66309942     0.18500
C1225       C  0.21506867  0.00098899  0.61319320    -0.07300
C1226       C  0.20681927  0.97133994  0.60898073    -0.18500
C1227       C  0.21515557  0.95690286  0.63310963     0.09900
C1228       C  0.23195082  0.97208997  0.66261224    -0.07300
C1229       C  0.23784182  0.50028559  0.66991201    -0.18500
C1230       C  0.22958467  0.51405028  0.64428787     0.09900
S1231       S  0.20390496  0.91928595  0.62460483    -0.33500
S1232       S  0.23178702  0.54832147  0.65489530    -0.33500
H1233       H  0.24623097  0.55291798  0.68769139     0.27900
H1234       H  0.20231830  0.91109813  0.66081002     0.27900
H1235       H  0.19475181  0.95933399  0.58572160     0.18500
H1236       H  0.24567000  0.51049693  0.69576270     0.18500
C1237       C  0.26383209  0.96958747  0.85948610    -0.07300
C1238       C  0.24967660  0.95338706  0.89015250    -0.18500
C1239       C  0.24008941  0.96504018  0.91734788     0.09900
C1240       C  0.24347863  0.99305712  0.91304424    -0.07300
C1241       C  0.25700762  0.51131331  0.88736058    -0.18500
C1242       C  0.26965093  0.99895626  0.85737577     0.09900
S1243       S  0.22240370  0.94340378  0.95660937    -0.33500
S1244       S  0.29132075  0.52575557  0.82751876    -0.33500
H1245       H  0.29084725  0.04868771  0.83473845     0.27900
H1246       H  0.22650618  0.91986170  0.94806711     0.27900
H1247       H  0.24528314  0.93122638  0.89224464     0.18500
H1248       H  0.26183095  0.53366549  0.88630550     0.18500
C1249       C  0.30565724  0.56843824  0.55647427    -0.07300
C1250       C  0.30481274  0.56145542  0.59302743    -0.18500
C1251       C  0.32770724  0.57854696  0.61630688     0.09900
C1252       C  0.35241967  0.60334641  0.60269663    -0.07300
C1253       C  0.35343021  0.60937811  0.56566242    -0.18500
C1254       C  0.33050722  0.59246098  0.54275774     0.09900
S1255       S  0.32443627  0.56836428  0.66313628    -0.33500
S1256       S  0.33332958  0.60152231  0.49565890    -0.33500
H1257       H  0.35718522  0.62945756  0.49852927     0.27900
H1258       H  0.29910446  0.54161042  0.66018158     0.27900
H1259       H  0.28541221  0.54352329  0.60380221     0.18500
H1260       H  0.37233081  0.62761478  0.55439541     0.18500
C1261       C  0.13805355  0.95488217  0.96795627    -0.07300
C1262       C  0.12797205  0.95360678  0.93285562    -0.18500
C1263       C  0.10316780  0.92917042  0.92046656     0.09900
C1264       C  0.08779457  0.90531791  0.94376426    -0.07300
C1265       C  0.09655353  0.90831243  0.98009047    -0.18500
C1266       C  0.12171245  0.93241050  0.99209312     0.09900
S1267       S  0.09322245  0.92948080  0.87445867    -0.33500
S1268       S  0.13302345  0.93421536  0.03808629    -0.33500
H1269       H  0.10921050  0.90835379  0.04992527     0.27900
H1270       H  0.06365023  0.91457222  0.88174928     0.27900
H1271       H  0.14016158  0.97138686  0.91447489     0.18500
H1272       H  0.08481316  0.89075603  0.99882416     0.18500
C1273       C  0.07160794  0.66665567  0.61197621    -0.07300
C1274       C  0.05041359  0.65928465  0.58586949    -0.18500
C1275       C  0.02380848  0.65656876  0.59483861     0.09900
C1276       C  0.01864827  0.66238459  0.63036084    -0.07300
C1277       C  0.03862072  0.66736160  0.65700463    -0.18500
C1278       C  0.06459365  0.66846315  0.64860541     0.09900
S1279       S  0.99732528  0.64759034  0.56028821    -0.33500
S1280       S  0.08821684  0.67231699  0.68524103    -0.33500
H1281       H  0.07141723  0.67384785  0.71344275     0.27900
H1282       H  0.51160254  0.63437716  0.53701457     0.27900
H1283       H  0.05526566  0.65734203  0.55803886     0.18500
H1284       H  0.03374041  0.67041081  0.68444553     0.18500
C1285       C  0.08160201  0.76317463  0.97371307    -0.07300
C1286       C  0.11154894  0.78130365  0.97706106    -0.18500
C1287       C  0.12761769  0.77610731  0.00222725     0.09900
C1288       C  0.11373093  0.74702918  0.51807011    -0.07300
C1289       C  0.08362116  0.73151683  0.51867852    -0.18500
C1290       C  0.06812469  0.73830494  0.99586212     0.09900
S1291       S  0.16547094  0.80146258  0.00438978    -0.33500
S1292       S  0.02890219  0.71384452  0.49315410    -0.33500
H1293       H  0.03058810  0.69121716  0.01309266     0.27900
H1294       H  0.17170191  0.78841869  0.52243807     0.27900
H1295       H  0.12284123  0.80052128  0.96055762     0.18500
H1296       H  0.07288928  0.71496936  0.53898725     0.18500
C1297       C  0.21802603  0.80076782  0.63865248    -0.07300
C1298       C  0.21674847  0.79642664  0.67598283    -0.18500
C1299       C  0.22099108  0.81839087  0.70039867     0.09900
C1300       C  0.22777664  0.84610711  0.68736450    -0.07300
C1301       C  0.22980369  0.85042648  0.64966871    -0.18500
C1302       C  0.22451253  0.82803740  0.62542982     0.09900
S1303       S  0.21417705  0.80842306  0.74713830    -0.33500
S1304       S  0.22566103  0.83411776  0.57754792    -0.33500
H1305       H  0.23104147  0.86285295  0.57937501     0.27900
H1306       H  0.24192425  0.82826965  0.75819107     0.27900
H1307       H  0.21053374  0.77507490  0.68628827     0.18500
H1308       H  0.23528874  0.87144984  0.63884388     0.18500
C1309       C  0.16789969  0.63298885  0.55138329    -0.07300
C1310       C  0.15687885  0.61943102  0.51817249    -0.18500
C1311       C  0.15932483  0.59548453  0.50683521     0.09900
C1312       C  0.17291991  0.58465296  0.52931100    -0.07300
C1313       C  0.18133227  0.59682133  0.56405681    -0.18500
C1314       C  0.17953019  0.62109315  0.57492296     0.09900
S1315       S  0.15264108  0.58997019  0.95906257    -0.33500
S1316       S  0.19253794  0.63703505  0.61863858    -0.33500
H1317       H  0.20220956  0.61804348  0.62959240     0.27900
H1318       H  0.13826136  0.56021394  0.96730382     0.27900
H1319       H  0.14743503  0.62836694  0.50025085     0.18500
H1320       H  0.19119606  0.58857299  0.58223852     0.18500
C1321       C  0.36708473  0.72262759  0.77083116    -0.07300
C1322       C  0.39716991  0.73811111  0.77166356    -0.18500
C1323       C  0.41377501  0.73311798  0.74601996     0.09900
C1324       C  0.40014888  0.71154601  0.71927658    -0.07300
C1325       C  0.36999167  0.69696240  0.71816016    -0.18500
C1326       C  0.35358640  0.70178937  0.74366650     0.09900
S1327       S  0.45200461  0.75517523  0.74871281    -0.33500
S1328       S  0.31525539  0.67944804  0.74099384    -0.33500
H1329       H  0.30963179  0.68063840  0.77777613     0.27900
H1330       H  0.45569215  0.76058697  0.71151364     0.27900
H1331       H  0.40781428  0.75499107  0.79152569     0.18500
H1332       H  0.35872369  0.68033410  0.69816707     0.18500
C1333       C  0.40734359  0.80291540  0.86055626    -0.07300
C1334       C  0.42828433  0.80781380  0.83441664    -0.18500
C1335       C  0.45418931  0.80906526  0.84369837     0.09900
C1336       C  0.45900874  0.80424749  0.87965239    -0.07300
C1337       C  0.43937770  0.80166690  0.90617644    -0.18500
C1338       C  0.41410658  0.80188250  0.89735547     0.09900
S1339       S  0.48045250  0.81548737  0.80916622    -0.33500
S1340       S  0.39114668  0.80110272  0.93377557    -0.33500
H1341       H  0.40712411  0.79919136  0.96230373     0.27900
H1342       H  0.00133282  0.84474781  0.82540555     0.27900
H1343       H  0.42374681  0.80907679  0.80639800     0.18500
H1344       H  0.44409712  0.79974764  0.93393579     0.18500
C1345       C  0.27776258  0.75626822  0.94253062    -0.07300
C1346       C  0.26684348  0.73040180  0.96202338    -0.18500
C1347       C  0.24356988  0.72167920  0.98573634     0.09900
C1348       C  0.23058737  0.73909688  0.99027965    -0.07300
C1349       C  0.24297889  0.76610527  0.97313938    -0.18500
C1350       C  0.26640675  0.77493221  0.94959811     0.09900
S1351       S  0.23054299  0.68792012  0.00950088    -0.33500
S1352       S  0.28098013  0.81035594  0.92955711    -0.33500
H1353       H  0.30877560  0.81455037  0.92491071     0.27900
H1354       H  0.24903102  0.67811551  0.49403508     0.27900
H1355       H  0.27524577  0.71591874  0.95677257     0.18500
H1356       H  0.23450415  0.78055122  0.97839226     0.18500
C1357       C  0.24906824  0.72983088  0.73953625    -0.07300
C1358       C  0.22395181  0.73061393  0.74916615    -0.18500
C1359       C  0.20207918  0.72442661  0.72411625     0.09900
C1360       C  0.20494493  0.71653457  0.68877587    -0.07300
C1361       C  0.22992531  0.71520283  0.67975897    -0.18500
C1362       C  0.25185426  0.72194929  0.70430415     0.09900
S1363       S  0.17065160  0.72617603  0.73762317    -0.33500
S1364       S  0.28265178  0.71990232  0.68874535    -0.33500
H1365       H  0.28971000  0.71338136  0.72227557     0.27900
H1366       H  0.17968284  0.73639350  0.77270985     0.27900
H1367       H  0.22181207  0.73675224  0.77632947     0.18500
H1368       H  0.23299792  0.70948377  0.65276035     0.18500
C1369       C  0.25122197  0.62190117  0.93938381    -0.07300
C1370       C  0.23560777  0.63674139  0.93962218    -0.18500
C1371       C  0.24049491  0.65798643  0.91369144     0.09900
C1372       C  0.26291650  0.66622395  0.88820095    -0.07300
C1373       C  0.27754714  0.65026951  0.88732553    -0.18500
C1374       C  0.27186922  0.62832592  0.91212044     0.09900
S1375       S  0.21644646  0.67242109  0.91347178    -0.33500
S1376       S  0.29212756  0.60963193  0.90756074    -0.33500
H1377       H  0.28948372  0.60067867  0.94347777     0.27900
H1378       H  0.21388029  0.67135976  0.87581130     0.27900
H1379       H  0.21841491  0.63064124  0.95901505     0.18500
H1380       H  0.29439570  0.65546506  0.86766948     0.18500
C1381       C  0.30643611  0.83222204  0.79353329    -0.07300
C1382       C  0.31780887  0.85708169  0.81512590    -0.18500
C1383       C  0.31845942  0.88244258  0.80320034     0.09900
C1384       C  0.30767343  0.88307863  0.76881583    -0.07300
C1385       C  0.29911429  0.85916210  0.74601814    -0.18500
C1386       C  0.29788423  0.83364594  0.75817564     0.09900
S1387       S  0.33269909  0.91308470  0.83326330    -0.33500
S1388       S  0.28404769  0.80270259  0.72865141    -0.33500
H1389       H  0.28102302  0.81626649  0.69792434     0.27900
H1390       H  0.33990016  0.93403088  0.80616256     0.27900
H1391       H  0.32577831  0.85657428  0.84161771     0.18500
H1392       H  0.29057817  0.85935199  0.71982942     0.18500
O1393       O  0.78374744  0.28290811  0.31236797    -0.83000
C1394       C  0.84825326  0.22987873  0.29175224     0.96300
O1395       O  0.83406139  0.23886077  0.27468859    -0.72100
O1396       O  0.79769150  0.25731903  0.25913054    -0.75700
Al1397     Al  0.83126379  0.27098906  0.29032849     1.49000
C1398       C  0.77177817  0.23747170  0.26354204     0.91600
O1399       O  0.76186951  0.20915390  0.36153612    -0.81900
O1400       O  0.80590665  0.24403435  0.40237505    -0.75500
Al1401     Al  0.77644907  0.24678917  0.33585373     1.90100
O1402       O  0.79776224  0.20133923  0.35315567    -0.74600
O1403       O  0.85593222  0.27705556  0.37014484    -0.74400
O1404       O  0.84984794  0.23197385  0.32585936    -0.80100
O1405       O  0.86898695  0.28804762  0.31406158    -0.78300
O1406       O  0.81133394  0.25247382  0.32883255    -1.14400
O1407       O  0.83020217  0.30490778  0.30228827    -0.73600
C1408       C  0.80707289  0.30543889  0.30375089     0.97100
C1409       C  0.77258510  0.19248200  0.36411601     0.93500
Al1410     Al  0.82634699  0.23962729  0.36066362     1.55600
O1411       O  0.76317033  0.22547571  0.29361211    -0.78200
C1412       C  0.87552725  0.28953782  0.34724000     0.97700
C1413       C  0.79177896  0.25739651  0.40574067     0.92500
O1414       O  0.78690214  0.26803164  0.37851533    -0.83600
O1415       O  0.69060028  0.18511689  0.06448423    -0.83000
C1416       C  0.62721973  0.23831970  0.04369763     0.96300
O1417       O  0.64130213  0.22900864  0.02652532    -0.72100
O1418       O  0.67715991  0.20928925  0.01004329    -0.75700
Al1419     Al  0.64376802  0.19713361  0.04289531     1.49000
C1420       C  0.70304862  0.22960263  0.01331783     0.91600
O1421       O  0.71432499  0.25968371  0.11047933    -0.81900
O1422       O  0.67182879  0.22724109  0.15417310    -0.75500
Al1423     Al  0.69881282  0.22179453  0.08592780     1.90100
O1424       O  0.67913793  0.26906612  0.10407496    -0.74600
O1425       O  0.62125616  0.19338751  0.12371447    -0.74400
O1426       O  0.62626711  0.23747918  0.07802105    -0.80100
O1427       O  0.60650428  0.18135150  0.06860230    -0.78300
O1428       O  0.66444740  0.21683295  0.08016945    -1.14400
O1429       O  0.64416323  0.16329337  0.05601349    -0.73600
C1430       C  0.66692979  0.16228000  0.05866327     0.97100
C1431       C  0.70408515  0.27664403  0.11444570     0.93500
Al1432     Al  0.65033701  0.23064931  0.11268593     1.55600
O1433       O  0.71192256  0.24227901  0.04290138    -0.78200
C1434       C  0.60098465  0.18073563  0.10221172     0.97700
C1435       C  0.68606699  0.21391296  0.15587399     0.92500
O1436       O  0.68770596  0.20098673  0.12863257    -0.83600
O1437       O  0.68439498  0.47795312  0.99059328    -0.83000
C1438       C  0.73879964  0.09523809  0.45987489     0.96300
O1439       O  0.73075113  0.07116150  0.44490767    -0.72100
O1440       O  0.71190979  0.01493035  0.43344345    -0.75700
Al1441     Al  0.69882843  0.03776265  0.46249712     1.49000
C1442       C  0.73056134  0.00724451  0.43977125     0.91600
O1443       O  0.75794258  0.02784660  0.03634970    -0.81900
O1444       O  0.72791260  0.04251102  0.07753447    -0.75500
Al1445     Al  0.71965619  0.00573897  0.01304718     1.90100
O1446       O  0.76879973  0.07295760  0.02561557    -0.74600
O1447       O  0.69473757  0.05950034  0.04424253    -0.74400
O1448       O  0.73685405  0.09664962  0.49394573    -0.80100
O1449       O  0.68241303  0.06066238  0.48482871    -0.78300
O1450       O  0.71710643  0.03668379  0.00321193    -1.14400
O1451       O  0.66730234  0.50572483  0.47709762    -0.73600
C1452       C  0.66442927  0.48107793  0.48216519     0.97100
C1453       C  0.77592714  0.05503875  0.03676582     0.93500
Al1454     Al  0.73137550  0.06574059  0.03412961     1.55600
O1455       O  0.74201551  0.50839951  0.47207773    -0.78200
C1456       C  0.68200723  0.06628020  0.02127183     0.97700
C1457       C  0.71324831  0.01522979  0.08182545     0.92500
O1458       O  0.70037843  0.50118268  0.05389257    -0.83600
O1459       O  0.79214369  0.49090608  0.23909535    -0.83000
C1460       C  0.73641139  0.37348482  0.21052823     0.96300
O1461       O  0.74369882  0.39733852  0.19551783    -0.72100
O1462       O  0.76289308  0.45278389  0.18255070    -0.75700
Al1463     Al  0.77642332  0.43094158  0.21069547     1.49000
C1464       C  0.74458589  0.46074717  0.18957424     0.91600
O1465       O  0.71876363  0.43993053  0.28679025    -0.81900
O1466       O  0.75084271  0.42608995  0.32559366    -0.75500
Al1467     Al  0.75623387  0.46254523  0.26169896     1.90100
O1468       O  0.70879632  0.39512183  0.27586175    -0.74600
O1469       O  0.78324844  0.40843066  0.28895451    -0.74400
O1470       O  0.73826094  0.37275058  0.24457561    -0.80100
O1471       O  0.79314110  0.40878106  0.23140520    -0.78300
O1472       O  0.75948651  0.43206697  0.25087388    -1.14400
O1473       O  0.81087721  0.46426849  0.22165395    -0.73600
C1474       C  0.81325858  0.98780566  0.22800062     0.97100
C1475       C  0.70119403  0.41269156  0.28725849     0.93500
Al1476     Al  0.74636406  0.40271809  0.28151574     1.55600
O1477       O  0.73529786  0.45950372  0.22095586    -0.78200
C1478       C  0.79557944  0.40268261  0.26386863     0.97700
C1479       C  0.76498202  0.45351892  0.32953678     0.92500
O1480       O  0.77783559  0.46855361  0.30287049    -0.83600
O1481       O  0.98433663  0.28070199  0.39644419    -0.83000
C1482       C  0.59991237  0.34990342  0.37514472     0.96300
O1483       O  0.57661150  0.33528906  0.35888315    -0.72100
O1484       O  0.52178059  0.29797013  0.34503027    -0.75700
Al1485     Al  0.54228902  0.33164422  0.37708237     1.49000
C1486       C  0.51636797  0.27181758  0.34801949     0.91600
O1487       O  0.53867681  0.26116204  0.44420573    -0.81900
O1488       O  0.54749329  0.30447175  0.48732311    -0.75500
Al1489     Al  0.51422716  0.27545426  0.42101016     1.90100
O1490       O  0.58102505  0.29828779  0.43448364    -0.74600
O1491       O  0.56156013  0.35492319  0.45723932    -0.74400
O1492       O  0.60003589  0.35081262  0.40939748    -0.80100
O1493       O  0.56306133  0.36959288  0.40216545    -0.78300
O1494       O  0.54231797  0.31098951  0.41413587    -1.14400
O1495       O  0.00846396  0.32721692  0.38344861    -0.73600
C1496       C  0.98505117  0.30398515  0.38647123     0.97100
C1497       C  0.56594046  0.27296784  0.44621309     0.93500
Al1498     Al  0.57053384  0.32618578  0.44496483     1.55600
O1499       O  0.52099655  0.26274493  0.37696627    -0.78200
C1500       C  0.56814187  0.37537000  0.43556882     0.97700
C1501       C  0.52044637  0.29002937  0.49154971     0.92500
O1502       O  0.50460804  0.28534592  0.46500889    -0.83600
O1503       O  0.49240101  0.19029115  0.15239496    -0.83000
C1504       C  0.87697743  0.12170229  0.12299686     0.96300
O1505       O  0.90021147  0.13765102  0.10654582    -0.72100
O1506       O  0.95619749  0.17483456  0.09261708    -0.75700
Al1507     Al  0.93453942  0.13969416  0.12241916     1.49000
C1508       C  0.96332844  0.20128453  0.09825558     0.91600
O1509       O  0.94093759  0.20789445  0.19596275    -0.81900
O1510       O  0.92992085  0.16350982  0.23674378    -0.75500
Al1511     Al  0.96439143  0.19304514  0.17106662     1.90100
O1512       O  0.89788226  0.17225193  0.18529650    -0.74600
O1513       O  0.91408607  0.11253132  0.20190545    -0.74400
O1514       O  0.87718009  0.12014777  0.15716390    -0.80100
O1515       O  0.91328695  0.10121762  0.14495835    -0.78300
O1516       O  0.93522813  0.15874956  0.16175890    -1.14400
O1517       O  0.96804335  0.13909713  0.13427479    -0.73600
C1518       C  0.49176812  0.16691973  0.14296756     0.97100
C1519       C  0.91378718  0.19712075  0.19788814     0.93500
Al1520     Al  0.90679455  0.14306273  0.19306351     1.55600
O1521       O  0.96000538  0.20946963  0.12880470    -0.78200
C1522       C  0.90767408  0.09351993  0.17780716     0.97700
C1523       C  0.95704319  0.17735122  0.24020181     0.92500
O1524       O  0.97190151  0.17922089  0.21329771    -0.83600
C1525       C  0.97237335  0.19704338  0.27125339    -0.07300
C1526       C  0.00100702  0.21918311  0.26498093    -0.18500
C1527       C  0.51560687  0.24205064  0.29501907     0.09900
C1528       C  0.50110842  0.25021682  0.31983307    -0.07300
C1529       C  0.97416027  0.22103846  0.32803580    -0.18500
C1530       C  0.95911396  0.19803530  0.30381460     0.09900
S1531       S  0.55403105  0.26149878  0.29022565    -0.33500
S1532       S  0.92308993  0.17128025  0.31575098    -0.33500
H1533       H  0.92538228  0.14780974  0.30184165     0.27900
H1534       H  0.55810014  0.28853079  0.30172211     0.27900
H1535       H  0.51179055  0.21277296  0.25336456     0.18500
H1536       H  0.96372509  0.22163743  0.35283155     0.18500
C1537       C  0.50528047  0.27242405  0.02234350    -0.07300
C1538       C  0.52070419  0.26302576  0.04313709    -0.18500
C1539       C  0.50684250  0.23997669  0.06729519     0.09900
C1540       C  0.97834065  0.22395867  0.07070230    -0.07300
C1541       C  0.96521628  0.23924264  0.05768460    -0.18500
C1542       C  0.97986441  0.26297412  0.03449141     0.09900
S1543       S  0.52804620  0.22844875  0.09217708    -0.33500
S1544       S  0.96106789  0.28110037  0.01907381    -0.33500
H1545       H  0.96691648  0.29470510  0.49718489     0.27900
H1546       H  0.55507204  0.25157862  0.08265871     0.27900
H1547       H  0.54345721  0.27227178  0.03852465     0.18500
H1548       H  0.94343806  0.23267998  0.06570649     0.18500
C1549       C  0.62623091  0.36723351  0.35302598    -0.07300
C1550       C  0.62680328  0.35781004  0.31777699    -0.18500
C1551       C  0.64968457  0.37392935  0.29431281     0.09900
C1552       C  0.67319956  0.40018532  0.30604636    -0.07300
C1553       C  0.67220231  0.41041712  0.34059947    -0.18500
C1554       C  0.64905973  0.39430893  0.36413977     0.09900
S1555       S  0.64772151  0.35964258  0.24965799    -0.33500
S1556       S  0.64932705  0.40879997  0.40807306    -0.33500
H1557       H  0.66929840  0.43774684  0.39970142     0.27900
H1558       H  0.66515054  0.38665861  0.23320305     0.27900
H1559       H  0.60918368  0.33758028  0.30825263     0.18500
H1560       H  0.69038166  0.43023714  0.34999950     0.18500
C1561       C  0.88849397  0.06279932  0.18840437    -0.07300
C1562       C  0.88551550  0.05626803  0.22544415    -0.18500
C1563       C  0.86164624  0.03163401  0.23924141     0.09900
C1564       C  0.83966500  0.01337171  0.21579775    -0.07300
C1565       C  0.84364328  0.01821937  0.17866254    -0.18500
C1566       C  0.86799856  0.04223098  0.16462614     0.09900
S1567       S  0.86051566  0.02518713  0.28686830    -0.33500
S1568       S  0.87049836  0.04580976  0.11641933    -0.33500
H1569       H  0.89967664  0.05394470  0.11525537     0.27900
H1570       H  0.84157247  0.99518124  0.28590369     0.27900
H1571       H  0.90128153  0.07122627  0.24414529     0.18500
H1572       H  0.82739067  0.00327867  0.16039779     0.18500
C1573       C  0.71901892  0.50198158  0.11067758    -0.07300
C1574       C  0.71531497  0.47402037  0.10436470    -0.18500
C1575       C  0.72350060  0.46008024  0.12935295     0.09900
C1576       C  0.73524775  0.47389363  0.16201810    -0.07300
C1577       C  0.73476579  0.99792350  0.17180996    -0.18500
C1578       C  0.72683946  0.01224739  0.14655336     0.09900
S1579       S  0.71835362  0.42473907  0.11802060    -0.33500
S1580       S  0.72745825  0.04552846  0.15864845    -0.33500
H1581       H  0.73699107  0.04711452  0.19410627     0.27900
H1582       H  0.71125737  0.41346815  0.15307690     0.27900
H1583       H  0.70683166  0.46304804  0.07906931     0.18500
H1584       H  0.74150177  0.00718978  0.19832666     0.18500
C1585       C  0.76108707  0.46842495  0.36144832    -0.07300
C1586       C  0.74376259  0.45156973  0.39005570    -0.18500
C1587       C  0.73413015  0.46366507  0.41662860     0.09900
C1588       C  0.74046294  0.49277308  0.41342260    -0.07300
C1589       C  0.76076243  0.01004812  0.38790948    -0.18500
C1590       C  0.76991725  0.49865567  0.36095740     0.09900
S1591       S  0.71363469  0.44175036  0.45441691    -0.33500
S1592       S  0.80387569  0.02326357  0.33976822    -0.33500
H1593       H  0.80218301  0.54948581  0.34778429     0.27900
H1594       H  0.71186719  0.41566288  0.44281883     0.27900
H1595       H  0.73724061  0.42876117  0.39115394     0.18500
H1596       H  0.76910034  0.03328112  0.38782204     0.18500
C1597       C  0.80331739  0.06719238  0.05643976    -0.07300
C1598       C  0.80207732  0.06219373  0.09358220    -0.18500
C1599       C  0.82514288  0.07973437  0.11625031     0.09900
C1600       C  0.85059238  0.10294619  0.10138370    -0.07300
C1601       C  0.85203441  0.10680487  0.06371504    -0.18500
C1602       C  0.82878733  0.08941248  0.04136991     0.09900
S1603       S  0.82077634  0.07232117  0.16396714    -0.33500
S1604       S  0.83155720  0.09562249  0.99342325    -0.33500
H1605       H  0.85978411  0.11887355  0.99303095     0.27900
H1606       H  0.79613225  0.04488765  0.16190223     0.27900
H1607       H  0.78215834  0.04568356  0.10522591     0.18500
H1608       H  0.87141380  0.12378888  0.05158459     0.18500
C1609       C  0.63678232  0.45565250  0.47289404    -0.07300
C1610       C  0.62502303  0.45481150  0.43899954    -0.18500
C1611       C  0.60033302  0.43006348  0.42708298     0.09900
C1612       C  0.58702459  0.40535014  0.44948738    -0.07300
C1613       C  0.59709188  0.40789085  0.48512373    -0.18500
C1614       C  0.62196671  0.43251221  0.49676680     0.09900
S1615       S  0.58805943  0.43104862  0.38252273    -0.33500
S1616       S  0.63483489  0.43420501  0.54191899    -0.33500
H1617       H  0.61190650  0.40778540  0.55401390     0.27900
H1618       H  0.55889526  0.41435929  0.39163298     0.27900
H1619       H  0.63590479  0.47314252  0.42098688     0.18500
H1620       H  0.58672006  0.38969247  0.50333108     0.18500
C1621       C  0.57136970  0.17067501  0.11589351    -0.07300
C1622       C  0.54887303  0.15958214  0.09115027    -0.18500
C1623       C  0.52225998  0.15687579  0.10003148     0.09900
C1624       C  0.51828978  0.16651987  0.13395507    -0.07300
C1625       C  0.53986592  0.17594332  0.15945748    -0.18500
C1626       C  0.56599230  0.17724299  0.15146017     0.09900
S1627       S  0.49422375  0.14299764  0.06686936    -0.33500
S1628       S  0.59165712  0.18738127  0.18751155    -0.33500
H1629       H  0.57745935  0.19568242  0.21281258     0.27900
H1630       H  0.01193100  0.13417488  0.03600644     0.27900
H1631       H  0.55255070  0.15430234  0.06420442     0.18500
H1632       H  0.53600249  0.18206700  0.18584652     0.18500
C1633       C  0.58138880  0.26081738  0.46736803    -0.07300
C1634       C  0.61160718  0.27661869  0.46671285    -0.18500
C1635       C  0.62819477  0.27201004  0.49180152     0.09900
C1636       C  0.61049928  0.24795292  0.02213156    -0.07300
C1637       C  0.58050262  0.23069723  0.02113496    -0.18500
C1638       C  0.56798747  0.23814334  0.49279450     0.09900
S1639       S  0.66656361  0.29409248  0.48795089    -0.33500
S1640       S  0.52600311  0.21089258  0.99312010    -0.33500
H1641       H  0.52898606  0.19566562  0.51957262     0.27900
H1642       H  0.66729391  0.29134509  0.03085839     0.27900
H1643       H  0.62270470  0.29369892  0.44710970     0.18500
H1644       H  0.57007610  0.21310266  0.04021588     0.18500
C1645       C  0.71779601  0.30206770  0.13832796    -0.07300
C1646       C  0.71389158  0.29710574  0.17554739    -0.18500
C1647       C  0.71947591  0.31948550  0.19988984     0.09900
C1648       C  0.72923692  0.34790360  0.18691865    -0.07300
C1649       C  0.73420352  0.35282389  0.14947043    -0.18500
C1650       C  0.72847303  0.33025966  0.12525763     0.09900
S1651       S  0.71193622  0.30972883  0.24658857    -0.33500
S1652       S  0.73450692  0.33729870  0.07763747    -0.33500
H1653       H  0.74628792  0.36753034  0.07970933     0.27900
H1654       H  0.74057174  0.32724950  0.25684974     0.27900
H1655       H  0.70516497  0.27529488  0.18576470     0.18500
H1656       H  0.74242679  0.37446219  0.13884576     0.18500
C1657       C  0.66616293  0.13455645  0.05247696    -0.07300
C1658       C  0.65291367  0.11855929  0.02136844    -0.18500
C1659       C  0.65516210  0.09420151  0.01166809     0.09900
C1660       C  0.67094143  0.08559923  0.03362927    -0.07300
C1661       C  0.68152569  0.10010818  0.06665949    -0.18500
C1662       C  0.67971123  0.12464507  0.07596607     0.09900
S1663       S  0.64308654  0.08234193  0.46393906    -0.33500
S1664       S  0.69523989  0.14347337  0.11753069    -0.33500
H1665       H  0.70418713  0.12436515  0.13033951     0.27900
H1666       H  0.63270454  0.05341062  0.47455391     0.27900
H1667       H  0.64185356  0.12586890  0.00366944     0.18500
H1668       H  0.69317057  0.09356724  0.08435174     0.18500
C1669       C  0.86481234  0.21956441  0.27044528    -0.07300
C1670       C  0.89471219  0.23358059  0.27396529    -0.18500
C1671       C  0.91195858  0.22916857  0.24881450     0.09900
C1672       C  0.89912697  0.20987724  0.21961665    -0.07300
C1673       C  0.86915368  0.19655181  0.21611554    -0.18500
C1674       C  0.85207126  0.20056231  0.24134793     0.09900
S1675       S  0.94995538  0.24886240  0.25548288    -0.33500
S1676       S  0.81381909  0.17964782  0.23578423    -0.33500
H1677       H  0.80689108  0.17859844  0.27251653     0.27900
H1678       H  0.95620650  0.25762829  0.21935972     0.27900
H1679       H  0.90480539  0.24898173  0.29558630     0.18500
H1680       H  0.85849475  0.18144954  0.19436944     0.18500
C1681       C  0.90566880  0.30026497  0.35877699    -0.07300
C1682       C  0.92643630  0.30564429  0.33217995    -0.18500
C1683       C  0.95282311  0.30807830  0.34085058     0.09900
C1684       C  0.95853788  0.30402898  0.37668024    -0.07300
C1685       C  0.93881989  0.30042863  0.40361865    -0.18500
C1686       C  0.91281508  0.29925340  0.39538576     0.09900
S1687       S  0.97766484  0.31434174  0.30472143    -0.33500
S1688       S  0.88944307  0.29659469  0.43230038    -0.33500
H1689       H  0.90499181  0.29297744  0.46006151     0.27900
H1690       H  0.49995457  0.34725706  0.33118791     0.27900
H1691       H  0.92168871  0.30665451  0.30415691     0.18500
H1692       H  0.94398336  0.29867376  0.43121287     0.18500
C1693       C  0.77524612  0.25495697  0.43893911    -0.07300
C1694       C  0.76565954  0.22970513  0.45943736    -0.18500
C1695       C  0.74255009  0.22058310  0.48337414     0.09900
C1696       C  0.72859751  0.23706234  0.48724936    -0.07300
C1697       C  0.73947571  0.26346229  0.46899309    -0.18500
C1698       C  0.76265983  0.27266749  0.44507462     0.09900
S1699       S  0.73072377  0.18740771  0.50818528    -0.33500
S1700       S  0.77521753  0.30726366  0.42343498    -0.33500
H1701       H  0.80362674  0.31316024  0.41924182     0.27900
H1702       H  0.74039356  0.17527083  0.98685602     0.27900
H1703       H  0.77493424  0.21590899  0.45482885     0.18500
H1704       H  0.73005326  0.27714395  0.47373081     0.18500
C1705       C  0.75002313  0.23050936  0.23557596    -0.07300
C1706       C  0.72355955  0.22788571  0.24628004    -0.18500
C1707       C  0.70201436  0.22245469  0.22129688     0.09900
C1708       C  0.70669704  0.21880353  0.18494946    -0.07300
C1709       C  0.73328430  0.22156822  0.17445119    -0.18500
C1710       C  0.75489311  0.22755302  0.19907847     0.09900
S1711       S  0.66870048  0.21970132  0.23603702    -0.33500
S1712       S  0.78789991  0.23088540  0.18208895    -0.33500
H1713       H  0.79347781  0.21902617  0.21253663     0.27900
H1714       H  0.67589099  0.22580019  0.27251874     0.27900
H1715       H  0.72001044  0.23071032  0.27434495     0.18500
H1716       H  0.73765659  0.21947178  0.14645979     0.18500
C1717       C  0.74792860  0.12076884  0.43626409    -0.07300
C1718       C  0.73257260  0.13591272  0.43708935    -0.18500
C1719       C  0.73719130  0.15702784  0.41098647     0.09900
C1720       C  0.75879330  0.16444972  0.38446327    -0.07300
C1721       C  0.77252651  0.14769749  0.38255413    -0.18500
C1722       C  0.76750636  0.12633567  0.40786420     0.09900
S1723       S  0.71399127  0.17247961  0.41197837    -0.33500
S1724       S  0.78750463  0.10742958  0.40271656    -0.33500
H1725       H  0.78774609  0.10135111  0.43935726     0.27900
H1726       H  0.71092869  0.17181943  0.37441016     0.27900
H1727       H  0.71591378  0.13027732  0.45717870     0.18500
H1728       H  0.78856807  0.15216527  0.36195939     0.18500
C1729       C  0.80728817  0.33205247  0.29239437    -0.07300
C1730       C  0.81497864  0.35465122  0.31704614    -0.18500
C1731       C  0.81507882  0.38014557  0.30715428     0.09900
C1732       C  0.80689451  0.38296593  0.27195763    -0.07300
C1733       C  0.80175071  0.36132005  0.24655368    -0.18500
C1734       C  0.80166708  0.33585606  0.25645174     0.09900
S1735       S  0.82538391  0.40807247  0.34075137    -0.33500
S1736       S  0.79340997  0.30800827  0.22318682    -0.33500
H1737       H  0.78466259  0.32013387  0.19590165     0.27900
H1738       H  0.83489403  0.43106198  0.31604717     0.27900
H1739       H  0.82055930  0.35225869  0.34424594     0.18500
H1740       H  0.79551792  0.36326877  0.21957311     0.18500
O1741       O  0.78523468  0.28532364  0.81837544    -0.83000
C1742       C  0.84929999  0.23176877  0.79731658     0.96300
O1743       O  0.83413902  0.23959404  0.78035170    -0.72100
O1744       O  0.79747638  0.25799403  0.76461859    -0.75700
Al1745     Al  0.83175212  0.27207083  0.79514129     1.49000
C1746       C  0.77131700  0.23878758  0.76955916     0.91600
O1747       O  0.76379864  0.21191577  0.86852692    -0.81900
O1748       O  0.80803004  0.24679342  0.90830834    -0.75500
Al1749     Al  0.77789716  0.24932934  0.84213271     1.90100
O1750       O  0.79963236  0.20367401  0.86008423    -0.74600
O1751       O  0.85746402  0.28002581  0.87479984    -0.74400
O1752       O  0.85150252  0.23450310  0.83133837    -0.80100
O1753       O  0.86992261  0.28971660  0.81829865    -0.78300
O1754       O  0.81243149  0.25434739  0.83422912    -1.14400
O1755       O  0.83132079  0.30615004  0.80622800    -0.73600
C1756       C  0.80862073  0.30731939  0.80867254     0.97100
C1757       C  0.77492986  0.19563794  0.87228499     0.93500
Al1758     Al  0.82815811  0.24226210  0.86632031     1.55600
O1759       O  0.76289012  0.22753638  0.80012660    -0.78200
C1760       C  0.87678686  0.29222216  0.85150995     0.97700
C1761       C  0.79389354  0.26012406  0.91140883     0.92500
O1762       O  0.78996444  0.27146820  0.88422224    -0.83600
O1763       O  0.69134338  0.18472535  0.56862517    -0.83000
C1764       C  0.63164697  0.24185201  0.54152522     0.96300
O1765       O  0.64603262  0.23236658  0.52553089    -0.72100
O1766       O  0.68076687  0.21110285  0.51150140    -0.75700
Al1767     Al  0.64701006  0.19972436  0.54287687     1.49000
C1768       C  0.70700097  0.23004464  0.51577561     0.91600
O1769       O  0.71697690  0.26054730  0.61206608    -0.81900
O1770       O  0.67363369  0.23068747  0.65529453    -0.75500
Al1771     Al  0.70067179  0.22205154  0.58895336     1.90100
O1772       O  0.68320058  0.27152604  0.60228200    -0.74600
O1773       O  0.62271934  0.19760368  0.62319835    -0.74400
O1774       O  0.63014177  0.24121409  0.57581849    -0.80100
O1775       O  0.60950609  0.18462907  0.56750775    -0.78300
O1776       O  0.66706415  0.21870565  0.58092419    -1.14400
O1777       O  0.64573365  0.16507966  0.55585985    -0.73600
C1778       C  0.66771816  0.16287222  0.55996629     0.97100
C1779       C  0.70774967  0.27851227  0.61372749     0.93500
Al1780     Al  0.65320932  0.23401594  0.61188163     1.55600
O1781       O  0.71604888  0.24163283  0.54585521    -0.78200
C1782       C  0.60317443  0.18393511  0.60087564     0.97700
C1783       C  0.68674980  0.21629021  0.65885249     0.92500
O1784       O  0.68788645  0.20216126  0.63250747    -0.83600
O1785       O  0.68539290  0.47828239  0.49261340    -0.83000
C1786       C  0.74008084  0.09585607  0.96425723     0.96300
O1787       O  0.73155917  0.07227688  0.94780863    -0.72100
O1788       O  0.71219058  0.01621624  0.93423236    -0.75700
Al1789     Al  0.69933510  0.03841713  0.96433090     1.49000
C1790       C  0.72975463  0.00711474  0.94032868     0.91600
O1791       O  0.75913866  0.03148539  0.53528255    -0.81900
O1792       O  0.72799939  0.04522073  0.57576386    -0.75500
Al1793     Al  0.72108150  0.00778716  0.51232411     1.90100
O1794       O  0.76821038  0.07585723  0.52312651    -0.74600
O1795       O  0.69335126  0.05952913  0.54110650    -0.74400
O1796       O  0.73892076  0.09612850  0.99843736    -0.80100
O1797       O  0.68346150  0.06093137  0.98801141    -0.78300
O1798       O  0.71721660  0.03769789  0.50141708    -1.14400
O1799       O  0.66531595  0.50426211  0.97462556    -0.73600
C1800       C  0.66302663  0.47991905  0.97999472     0.97100
C1801       C  0.77629555  0.05887370  0.53494619     0.93500
Al1802     Al  0.73048166  0.06731471  0.53131779     1.55600
O1803       O  0.74081352  0.50901536  0.96942599    -0.78200
C1804       C  0.68070340  0.06622351  0.51800441     0.97700
C1805       C  0.71387925  0.01795086  0.58072769     0.92500
O1806       O  0.70114157  0.50063963  0.55610965    -0.83600
O1807       O  0.79273382  0.49126994  0.73859109    -0.83000
C1808       C  0.74107020  0.37442801  0.71126275     0.96300
O1809       O  0.74889278  0.39836645  0.69623872    -0.72100
O1810       O  0.76656766  0.45326353  0.68309171    -0.75700
Al1811     Al  0.78046388  0.43217340  0.71237064     1.49000
C1812       C  0.74680167  0.45939160  0.68916613     0.91600
O1813       O  0.71938464  0.43821929  0.78618823    -0.81900
O1814       O  0.75284349  0.42668628  0.82587685    -0.75500
Al1815     Al  0.75694023  0.46193315  0.76133565     1.90100
O1816       O  0.71146738  0.39406203  0.77581808    -0.74600
O1817       O  0.78660600  0.41090289  0.79084290    -0.74400
O1818       O  0.74271949  0.37350698  0.74537743    -0.80100
O1819       O  0.79774846  0.41072086  0.73409743    -0.78300
O1820       O  0.76211116  0.43246235  0.75168519    -1.14400
O1821       O  0.81385561  0.46605866  0.72474832    -0.73600
C1822       C  0.81334849  0.99044154  0.72718795     0.97100
C1823       C  0.70266371  0.41077749  0.78672493     0.93500
Al1824     Al  0.74947539  0.40335354  0.78230036     1.55600
O1825       O  0.73609737  0.45671901  0.71995670    -0.78200
C1826       C  0.79973850  0.40518653  0.76695997     0.97700
C1827       C  0.76617065  0.45413653  0.82997263     0.92500
O1828       O  0.77806602  0.46975014  0.80323845    -0.83600
O1829       O  0.98468655  0.28077775  0.89966169    -0.83000
C1830       C  0.60007289  0.34561469  0.87260175     0.96300
O1831       O  0.57687540  0.33110080  0.85613950    -0.72100
O1832       O  0.52185048  0.29400303  0.84218955    -0.75700
Al1833     Al  0.54263856  0.32826435  0.87384049     1.49000
C1834       C  0.51591658  0.26768060  0.84600686     0.91600
O1835       O  0.53608555  0.25761180  0.94362487    -0.81900
O1836       O  0.54614769  0.30183514  0.98466154    -0.75500
Al1837     Al  0.51287644  0.27255743  0.91883912     1.90100
O1838       O  0.57877868  0.29345105  0.93219022    -0.74600
O1839       O  0.56204266  0.35198235  0.95411168    -0.74400
O1840       O  0.59990579  0.34640149  0.90686312    -0.80100
O1841       O  0.56387605  0.36660303  0.89889677    -0.78300
O1842       O  0.54173015  0.30772162  0.91143845    -1.14400
O1843       O  0.00794943  0.32795831  0.89098125    -0.73600
C1844       C  0.98482527  0.30432265  0.89241533     0.97100
C1845       C  0.56325354  0.26882802  0.94564634     0.93500
Al1846     Al  0.56980348  0.32246619  0.94229686     1.55600
O1847       O  0.51963092  0.25876038  0.87563716    -0.78200
C1848       C  0.56873327  0.37239594  0.93243209     0.97700
C1849       C  0.51906269  0.28841237  0.98883751     0.92500
O1850       O  0.50339301  0.28367738  0.96209406    -0.83600
O1851       O  0.49221787  0.18595837  0.65024014    -0.83000
C1852       C  0.87587591  0.12512861  0.62314904     0.96300
O1853       O  0.89909282  0.14121969  0.60689599    -0.72100
O1854       O  0.95449920  0.17838536  0.59265589    -0.75700
Al1855     Al  0.93329489  0.14323342  0.62249037     1.49000
C1856       C  0.96173191  0.20481667  0.59858749     0.91600
O1857       O  0.93905290  0.21095326  0.69608114    -0.81900
O1858       O  0.92818529  0.16679447  0.73648698    -0.75500
Al1859     Al  0.96297600  0.19657139  0.67138386     1.90100
O1860       O  0.89642725  0.17524265  0.68398707    -0.74600
O1861       O  0.91309817  0.11613072  0.70213133    -0.74400
O1862       O  0.87593271  0.12301738  0.65719789    -0.80100
O1863       O  0.91237562  0.10464949  0.64523743    -0.78300
O1864       O  0.93400493  0.16213271  0.66187135    -1.14400
O1865       O  0.96678644  0.14289032  0.63403243    -0.73600
C1866       C  0.49119390  0.16266186  0.63960430     0.97100
C1867       C  0.91182156  0.19974829  0.69767183     0.93500
Al1868     Al  0.90544109  0.14628215  0.69282659     1.55600
O1869       O  0.95872686  0.21296667  0.62925983    -0.78200
C1870       C  0.90703298  0.09706617  0.67820170     0.97700
C1871       C  0.95522124  0.18074745  0.74058157     0.92500
O1872       O  0.97057229  0.18314865  0.71393811    -0.83600
C1873       C  0.96991723  0.19983119  0.77233254    -0.07300
C1874       C  0.00020550  0.21551164  0.77170756    -0.18500
C1875       C  0.51550194  0.23531183  0.79596228     0.09900
C1876       C  0.50107179  0.24565064  0.81792589    -0.07300
C1877       C  0.97162443  0.23204396  0.82053601    -0.18500
C1878       C  0.95570772  0.20786775  0.79832837     0.09900
S1879       S  0.55398025  0.25204620  0.79480145    -0.33500
S1880       S  0.91755184  0.18824976  0.80499096    -0.33500
H1881       H  0.91554381  0.16086226  0.80209194     0.27900
H1882       H  0.55977901  0.27982974  0.80557590     0.27900
H1883       H  0.51146495  0.20446877  0.75605496     0.18500
H1884       H  0.96046490  0.23783805  0.84044806     0.18500
C1885       C  0.50691407  0.27303929  0.52458934    -0.07300
C1886       C  0.52214587  0.26258158  0.54395964    -0.18500
C1887       C  0.50806151  0.23867544  0.56700165     0.09900
C1888       C  0.97618823  0.22751440  0.57106237    -0.07300
C1889       C  0.95971288  0.23371628  0.54778131    -0.18500
C1890       C  0.97254922  0.25731018  0.52416222     0.09900
S1891       S  0.52897585  0.22633306  0.59109664    -0.33500
S1892       S  0.94872950  0.26448245  0.49778358    -0.33500
H1893       H  0.98575399  0.30794708  0.01262090     0.27900
H1894       H  0.55612129  0.24907052  0.58120056     0.27900
H1895       H  0.54488836  0.27185184  0.53915766     0.18500
H1896       H  0.93661016  0.22055521  0.54870599     0.18500
C1897       C  0.62662077  0.36324667  0.85082634    -0.07300
C1898       C  0.62848911  0.35347025  0.81623403    -0.18500
C1899       C  0.65167030  0.37004577  0.79320665     0.09900
C1900       C  0.67420426  0.39711399  0.80479176    -0.07300
C1901       C  0.67174444  0.40762645  0.83854866    -0.18500
C1902       C  0.64822311  0.39114725  0.86143995     0.09900
S1903       S  0.65120606  0.35546579  0.74913375    -0.33500
S1904       S  0.64599349  0.40649201  0.90367453    -0.33500
H1905       H  0.66445577  0.43554804  0.89399922     0.27900
H1906       H  0.66778423  0.38248091  0.73226600     0.27900
H1907       H  0.61162288  0.33269644  0.80688007     0.18500
H1908       H  0.68896716  0.42817605  0.84782259     0.18500
C1909       C  0.88851349  0.06629125  0.68924419    -0.07300
C1910       C  0.88414914  0.06048298  0.72648850    -0.18500
C1911       C  0.86021685  0.03568109  0.73982968     0.09900
C1912       C  0.83989110  0.01613051  0.71559901    -0.07300
C1913       C  0.84553841  0.02013125  0.67857570    -0.18500
C1914       C  0.86971899  0.04464791  0.66509212     0.09900
S1915       S  0.85662490  0.03066712  0.78787820    -0.33500
S1916       S  0.87382238  0.04762693  0.61692796    -0.33500
H1917       H  0.90345546  0.05791636  0.61778681     0.27900
H1918       H  0.83977733  0.00032103  0.78748263     0.27900
H1919       H  0.89864521  0.07622287  0.74563159     0.18500
H1920       H  0.83048792  0.00433113  0.65989169     0.18500
C1921       C  0.71985769  0.50068742  0.61249021    -0.07300
C1922       C  0.71580734  0.47263697  0.60563449    -0.18500
C1923       C  0.72476043  0.45873133  0.62968845     0.09900
C1924       C  0.73766293  0.47273577  0.66181351    -0.07300
C1925       C  0.73872727  0.00301419  0.67003270    -0.18500
C1926       C  0.73067370  0.01729626  0.64479384     0.09900
S1927       S  0.71913674  0.42329694  0.61787785    -0.33500
S1928       S  0.73614018  0.05300739  0.65469268    -0.33500
H1929       H  0.74675927  0.05513256  0.68965133     0.27900
H1930       H  0.71406366  0.41236382  0.65313945     0.27900
H1931       H  0.70650156  0.46162259  0.58062296     0.18500
H1932       H  0.74864290  0.01377752  0.69494884     0.18500
C1933       C  0.76232281  0.46836561  0.86253859    -0.07300
C1934       C  0.74167819  0.45116650  0.88819683    -0.18500
C1935       C  0.73134250  0.46355392  0.91343873     0.09900
C1936       C  0.73993383  0.49334401  0.91115528    -0.07300
C1937       C  0.75614938  0.01089220  0.88444313    -0.18500
C1938       C  0.77418025  0.49901016  0.86443048     0.09900
S1939       S  0.70801358  0.44138745  0.94924864    -0.33500
S1940       S  0.79302601  0.02552916  0.82682894    -0.33500
H1941       H  0.81022477  0.54945746  0.85550044     0.27900
H1942       H  0.70603230  0.41508269  0.93820335     0.27900
H1943       H  0.73309675  0.42794000  0.88791492     0.18500
H1944       H  0.76096336  0.03322658  0.88308252     0.18500
C1945       C  0.80373635  0.07225554  0.55450681    -0.07300
C1946       C  0.80337088  0.06408991  0.59041310    -0.18500
C1947       C  0.82572758  0.08131226  0.61406898     0.09900
C1948       C  0.84973830  0.10708408  0.60124131    -0.07300
C1949       C  0.85034576  0.11447934  0.56479048    -0.18500
C1950       C  0.82765325  0.09767655  0.54160738     0.09900
S1951       S  0.82218111  0.07027584  0.66055181    -0.33500
S1952       S  0.82936008  0.10891443  0.49544364    -0.33500
H1953       H  0.85472259  0.13568459  0.49827799     0.27900
H1954       H  0.80063995  0.04139045  0.65530570     0.27900
H1955       H  0.78449000  0.04521678  0.60066694     0.18500
H1956       H  0.86866321  0.13378192  0.55435308     0.18500
C1957       C  0.63561227  0.45386458  0.97092243    -0.07300
C1958       C  0.62276667  0.45298568  0.93776151    -0.18500
C1959       C  0.59863380  0.42766660  0.92567883     0.09900
C1960       C  0.58709262  0.40236755  0.94698310    -0.07300
C1961       C  0.59806053  0.40471204  0.98212887    -0.18500
C1962       C  0.62225692  0.42994300  0.99403803     0.09900
S1963       S  0.58457776  0.42874837  0.88236010    -0.33500
S1964       S  0.63596142  0.43150784  0.03868921    -0.33500
H1965       H  0.61581149  0.40315413  0.04913139     0.27900
H1966       H  0.55593840  0.40977409  0.89216413     0.27900
H1967       H  0.63237557  0.47181010  0.92036456     0.18500
H1968       H  0.58890451  0.38606675  0.99973393     0.18500
C1969       C  0.57292514  0.17145130  0.61342593    -0.07300
C1970       C  0.55114760  0.16087011  0.58762407    -0.18500
C1971       C  0.52361185  0.15560758  0.59629996     0.09900
C1972       C  0.51780153  0.16226961  0.63109583    -0.07300
C1973       C  0.53866385  0.17092604  0.65750101    -0.18500
C1974       C  0.56582404  0.17469052  0.64960635     0.09900
S1975       S  0.49758572  0.14322568  0.56093477    -0.33500
S1976       S  0.59080343  0.18429864  0.68637193    -0.33500
H1977       H  0.57243958  0.18315355  0.71426238     0.27900
H1978       H  0.97587239  0.12018566  0.57940925     0.27900
H1979       H  0.55583900  0.15789288  0.56004577     0.18500
H1980       H  0.53366017  0.17519059  0.68433373     0.18500
C1981       C  0.57810556  0.25733453  0.96893554    -0.07300
C1982       C  0.60828517  0.27354450  0.96956826    -0.18500
C1983       C  0.62431988  0.26936743  0.99570847     0.09900
C1984       C  0.61481433  0.25095005  0.51887670    -0.07300
C1985       C  0.58477798  0.23384281  0.51859736    -0.18500
C1986       C  0.56415179  0.23494525  0.99465482     0.09900
S1987       S  0.66270605  0.29215502  0.99380919    -0.33500
S1988       S  0.52990323  0.21377397  0.49165721    -0.33500
H1989       H  0.52473126  0.19247476  0.02084402     0.27900
H1990       H  0.67233594  0.29325858  0.52455844     0.27900
H1991       H  0.61983311  0.29060122  0.95008892     0.18500
H1992       H  0.57459686  0.21633603  0.53783398     0.18500
C1993       C  0.72206612  0.30492532  0.63596342    -0.07300
C1994       C  0.72786594  0.30189718  0.67196981    -0.18500
C1995       C  0.73294373  0.32335183  0.69781276     0.09900
C1996       C  0.73280551  0.34888674  0.68722395    -0.07300
C1997       C  0.72798572  0.35205406  0.65066934    -0.18500
C1998       C  0.72263988  0.33052264  0.62519825     0.09900
S1999       S  0.73850538  0.31701992  0.74395923    -0.33500
S2000       S  0.71643640  0.33574501  0.57883604    -0.33500
H2001       H  0.72071648  0.36398444  0.58267967     0.27900
H2002       H  0.74083108  0.29209016  0.73778080     0.27900
H2003       H  0.72652618  0.28177847  0.68036142     0.18500
H2004       H  0.72824604  0.37155945  0.64182071     0.18500
C2005       C  0.66618906  0.13499389  0.55192731    -0.07300
C2006       C  0.65527814  0.12165629  0.51859422    -0.18500
C2007       C  0.65692954  0.09719946  0.50756121     0.09900
C2008       C  0.66967520  0.08568627  0.53044128    -0.07300
C2009       C  0.67769035  0.09753980  0.56538263    -0.18500
C2010       C  0.67673629  0.12233896  0.57592979     0.09900
S2011       S  0.63797289  0.07554715  0.97089886    -0.33500
S2012       S  0.68944207  0.13797497  0.61984125    -0.33500
H2013       H  0.70053389  0.11995756  0.62979991     0.27900
H2014       H  0.63102990  0.04793452  0.98380839     0.27900
H2015       H  0.64655995  0.13113204  0.50036009     0.18500
H2016       H  0.68665623  0.08861855  0.58397375     0.18500
C2017       C  0.86592846  0.22178116  0.77590086    -0.07300
C2018       C  0.89539567  0.24060445  0.77073194    -0.18500
C2019       C  0.91085021  0.23570408  0.74346473     0.09900
C2020       C  0.89676223  0.21097332  0.72126752    -0.07300
C2021       C  0.86701241  0.19259246  0.72650268    -0.18500
C2022       C  0.85178983  0.19751094  0.75352324     0.09900
S2023       S  0.94799577  0.26215843  0.73762165    -0.33500
S2024       S  0.81414126  0.17186232  0.75834054    -0.33500
H2025       H  0.81238266  0.17644222  0.79533999     0.27900
H2026       H  0.94669392  0.26180235  0.69983737     0.27900
H2027       H  0.90613969  0.25997298  0.78686485     0.18500
H2028       H  0.85530542  0.17332626  0.71026135     0.18500
C2029       C  0.90699297  0.30335277  0.86297692    -0.07300
C2030       C  0.92715459  0.30645356  0.83669407    -0.18500
C2031       C  0.95264876  0.30718749  0.84595223     0.09900
C2032       C  0.95838739  0.30443379  0.88224200    -0.07300
C2033       C  0.93975950  0.30410908  0.90891494    -0.18500
C2034       C  0.91446033  0.30425112  0.89982501     0.09900
S2035       S  0.97654135  0.31024299  0.81007565    -0.33500
S2036       S  0.89242727  0.30610556  0.93567304    -0.33500
H2037       H  0.90896511  0.30580589  0.96457084     0.27900
H2038       H  0.46658646  0.32488947  0.78182545     0.27900
H2039       H  0.92251113  0.30695142  0.80853543     0.18500
H2040       H  0.94515453  0.30382596  0.93682085     0.18500
C2041       C  0.77522712  0.25568219  0.94295583    -0.07300
C2042       C  0.76089827  0.22768635  0.95738457    -0.18500
C2043       C  0.73576203  0.21788698  0.97762169     0.09900
C2044       C  0.72489675  0.23677732  0.98496424    -0.07300
C2045       C  0.74017785  0.26543967  0.97248894    -0.18500
C2046       C  0.76495895  0.27499077  0.95134064     0.09900
S2047       S  0.71787176  0.18101951  0.99349940    -0.33500
S2048       S  0.78262739  0.31204722  0.93598130    -0.33500
H2049       H  0.80983555  0.31461219  0.93210644     0.27900
H2050       H  0.75228599  0.18155725  0.49642268     0.27900
H2051       H  0.76826152  0.21263705  0.95062992     0.18500
H2052       H  0.73295194  0.28060371  0.97972750     0.18500
C2053       C  0.74941978  0.23145395  0.74108564    -0.07300
C2054       C  0.72195085  0.22665453  0.75119751    -0.18500
C2055       C  0.70084002  0.22173065  0.72544546     0.09900
C2056       C  0.70705431  0.22121627  0.68876439    -0.07300
C2057       C  0.73442519  0.22578161  0.67894453    -0.18500
C2058       C  0.75537456  0.23073255  0.70433363     0.09900
S2059       S  0.66600765  0.21531471  0.73948146    -0.33500
S2060       S  0.78890653  0.23502154  0.68797893    -0.33500
H2061       H  0.79251221  0.21982032  0.71649315     0.27900
H2062       H  0.67077421  0.21613822  0.77669388     0.27900
H2063       H  0.71722983  0.22741349  0.77939974     0.18500
H2064       H  0.73979695  0.22554738  0.65088638     0.18500
C2065       C  0.74845838  0.12234985  0.94277801    -0.07300
C2066       C  0.72964907  0.12138725  0.91588288    -0.18500
C2067       C  0.73645557  0.14540273  0.89375153     0.09900
C2068       C  0.76312730  0.17070440  0.89757531    -0.07300
C2069       C  0.78146008  0.17179275  0.92518759    -0.18500
C2070       C  0.77439452  0.14819443  0.94784701     0.09900
S2071       S  0.71128651  0.14178202  0.85979436    -0.33500
S2072       S  0.80001784  0.15202199  0.98138992    -0.33500
H2073       H  0.79460089  0.12332886  0.97915277     0.27900
H2074       H  0.71499421  0.16967489  0.86465233     0.27900
H2075       H  0.70938829  0.10170980  0.91215094     0.18500
H2076       H  0.80197198  0.19120075  0.92871130     0.18500
C2077       C  0.80964121  0.33425100  0.79749686    -0.07300
C2078       C  0.81210900  0.35426184  0.82365502    -0.18500
C2079       C  0.81388351  0.38050151  0.81391263     0.09900
C2080       C  0.81147472  0.38618635  0.77720401    -0.07300
C2081       C  0.81186273  0.36728322  0.75096487    -0.18500
C2082       C  0.81114631  0.34146482  0.76077667     0.09900
S2083       S  0.81865286  0.40549466  0.84972966    -0.33500
S2084       S  0.81007470  0.31690382  0.72624385    -0.33500
H2085       H  0.81332069  0.33470741  0.69665628     0.27900
H2086       H  0.83265971  0.43042055  0.82807712     0.27900
H2087       H  0.81283302  0.34948530  0.85180095     0.18500
H2088       H  0.81020979  0.37141179  0.72286813     0.18500
O2089       O  0.78597496  0.78370196  0.31790150    -0.83000
C2090       C  0.85043249  0.73088982  0.29473071     0.96300
O2091       O  0.83477350  0.73838085  0.27843431    -0.72100
O2092       O  0.79758950  0.75563947  0.26361111    -0.75700
Al2093     Al  0.83249979  0.77089973  0.29283004     1.49000
C2094       C  0.77173803  0.73611843  0.26959842     0.91600
O2095       O  0.76705343  0.71117703  0.36835358    -0.81900
O2096       O  0.81184646  0.74679497  0.40703021    -0.75500
Al2097     Al  0.77989867  0.74825241  0.34199354     1.90100
O2098       O  0.80326846  0.70345909  0.35947883    -0.74600
O2099       O  0.86020601  0.78050625  0.37138643    -0.74400
O2100       O  0.85398393  0.73457890  0.32850951    -0.80100
O2101       O  0.87140718  0.78943433  0.31446366    -0.78300
O2102       O  0.81434293  0.75361826  0.33273046    -1.14400
O2103       O  0.83166526  0.80506940  0.30338038    -0.73600
C2104       C  0.80874002  0.80578245  0.30682721     0.97100
C2105       C  0.77847707  0.69510211  0.37148536     0.93500
Al2106     Al  0.83127620  0.74236138  0.36430006     1.55600
O2107       O  0.76391423  0.72583390  0.30068455    -0.78200
C2108       C  0.87901240  0.79249587  0.34743718     0.97700
C2109       C  0.79760497  0.75993465  0.41072728     0.92500
O2110       O  0.79291584  0.77100001  0.38381915    -0.83600
O2111       O  0.69152883  0.68300411  0.06657981    -0.83000
C2112       C  0.62959141  0.73843228  0.04534560     0.96300
O2113       O  0.64397064  0.72943879  0.02819567    -0.72100
O2114       O  0.67936873  0.70892130  0.01159582    -0.75700
Al2115     Al  0.64583640  0.69695018  0.04412111     1.49000
C2116       C  0.70551374  0.72847394  0.01518990     0.91600
O2117       O  0.71635901  0.75802485  0.11286842    -0.81900
O2118       O  0.67338891  0.72578452  0.15640701    -0.75500
Al2119     Al  0.70051175  0.72000919  0.08824003     1.90100
O2120       O  0.68152035  0.76789986  0.10599320    -0.74600
O2121       O  0.62218730  0.69261574  0.12506611    -0.74400
O2122       O  0.62850795  0.73722300  0.07967164    -0.80100
O2123       O  0.60844759  0.68115267  0.06936485    -0.78300
O2124       O  0.66630468  0.71574666  0.08200743    -1.14400
O2125       O  0.64536746  0.66268942  0.05639928    -0.73600
C2126       C  0.66762908  0.66083847  0.05934336     0.97100
C2127       C  0.70640047  0.77529450  0.11644581     0.93500
Al2128     Al  0.65222339  0.72973099  0.11444800     1.55600
O2129       O  0.71454054  0.74051626  0.04510120    -0.78200
C2130       C  0.60232305  0.67986557  0.10285920     0.97700
C2131       C  0.68732820  0.71211417  0.15859011     0.92500
O2132       O  0.68920175  0.69933659  0.13125985    -0.83600
O2133       O  0.68296971  0.97797510  0.99196549    -0.83000
C2134       C  0.74323179  0.59544987  0.46364004     0.96300
O2135       O  0.73455875  0.57157171  0.44786722    -0.72100
O2136       O  0.71410493  0.51542493  0.43520786    -0.75700
Al2137     Al  0.70186732  0.53841300  0.46463967     1.49000
C2138       C  0.73188153  0.50661534  0.44135119     0.91600
O2139       O  0.75916874  0.52932410  0.03430475    -0.81900
O2140       O  0.72901554  0.54396388  0.07481870    -0.75500
Al2141     Al  0.72095433  0.50653003  0.01122354     1.90100
O2142       O  0.76954932  0.57408173  0.02223215    -0.74600
O2143       O  0.69536468  0.55998681  0.04139762    -0.74400
O2144       O  0.74143620  0.59616702  0.49776716    -0.80100
O2145       O  0.68645967  0.56183096  0.48744977    -0.78300
O2146       O  0.71779658  0.53701159  0.00068945    -1.14400
O2147       O  0.66494920  0.00464954  0.47607099    -0.73600
C2148       C  0.66301833  0.98047338  0.48184830     0.97100
C2149       C  0.77694160  0.55655522  0.03412490     0.93500
Al2150     Al  0.73198400  0.56651857  0.03092364     1.55600
O2151       O  0.74113620  0.01021698  0.47045619    -0.78200
C2152       C  0.68160684  0.56544612  0.01848834     0.97700
C2153       C  0.71440512  0.51673293  0.07967105     0.92500
O2154       O  0.69910001  0.00004256  0.05587849    -0.83600
O2155       O  0.79213815  0.98993532  0.23990862    -0.83000
C2156       C  0.73750363  0.87230244  0.21231922     0.96300
O2157       O  0.74449342  0.89607436  0.19722322    -0.72100
O2158       O  0.76325926  0.95154233  0.18379547    -0.75700
Al2159     Al  0.77707702  0.92998527  0.21221901     1.49000
C2160       C  0.74464169  0.95912864  0.19063902     0.91600
O2161       O  0.71905937  0.93864332  0.28801781    -0.81900
O2162       O  0.75192726  0.92549805  0.32725182    -0.75500
Al2163     Al  0.75633247  0.96146093  0.26292048     1.90100
O2164       O  0.70979341  0.89393194  0.27799023    -0.74600
O2165       O  0.78464575  0.90815813  0.29045733    -0.74400
O2166       O  0.73946647  0.87179769  0.24640004    -0.80100
O2167       O  0.79424488  0.90818721  0.23289643    -0.78300
O2168       O  0.76018473  0.93117963  0.25250579    -1.14400
O2169       O  0.81128919  0.96349829  0.22307031    -0.73600
C2170       C  0.81319704  0.48865643  0.22729008     0.97100
C2171       C  0.70180730  0.91135877  0.28878270     0.93500
Al2172     Al  0.74751785  0.90200092  0.28328168     1.55600
O2173       O  0.73521313  0.95761236  0.22199025    -0.78200
C2174       C  0.79705393  0.90247160  0.26538776     0.97700
C2175       C  0.76549815  0.95293307  0.33139735     0.92500
O2176       O  0.77768741  0.96838746  0.30461392    -0.83600
O2177       O  0.98619273  0.78013857  0.39581247    -0.83000
C2178       C  0.59951756  0.84941411  0.37490227     0.96300
O2179       O  0.57636731  0.83507651  0.35825525    -0.72100
O2180       O  0.52177756  0.79756030  0.34341539    -0.75700
Al2181     Al  0.54190118  0.83089619  0.37645371     1.49000
C2182       C  0.51682023  0.77148423  0.34561255     0.91600
O2183       O  0.53846848  0.75959520  0.44167056    -0.81900
O2184       O  0.54645125  0.80224294  0.48563049    -0.75500
Al2185     Al  0.51393227  0.77384328  0.41868313     1.90100
O2186       O  0.58070263  0.79722259  0.43308032    -0.74600
O2187       O  0.55965867  0.85241759  0.45700569    -0.74400
O2188       O  0.59941119  0.85002218  0.40917913    -0.80100
O2189       O  0.56244349  0.86864660  0.40255694    -0.78300
O2190       O  0.54182194  0.80963274  0.41285055    -1.14400
O2191       O  0.00984453  0.82747014  0.38887973    -0.73600
C2192       C  0.98661905  0.80393140  0.38905072     0.97100
C2193       C  0.56571798  0.77172244  0.44431844     0.93500
Al2194     Al  0.56963143  0.82458290  0.44408502     1.55600
O2195       O  0.52153012  0.76218452  0.37430834    -0.78200
C2196       C  0.56698689  0.87347158  0.43623307     0.97700
C2197       C  0.51943520  0.78750866  0.48963099     0.92500
O2198       O  0.50358345  0.78255681  0.46301212    -0.83600
O2199       O  0.49263247  0.68692935  0.15169875    -0.83000
C2200       C  0.87706424  0.62276464  0.12187005     0.96300
O2201       O  0.90052504  0.63827246  0.10573700    -0.72100
O2202       O  0.95621691  0.67595993  0.09242123    -0.75700
Al2203     Al  0.93475333  0.64116563  0.12312384     1.49000
C2204       C  0.96244001  0.70226978  0.09723425     0.91600
O2205       O  0.93942086  0.70998553  0.19378071    -0.81900
O2206       O  0.92826208  0.66630047  0.23550618    -0.75500
Al2207     Al  0.96335922  0.69547096  0.17025055     1.90100
O2208       O  0.89687052  0.67423662  0.18173947    -0.74600
O2209       O  0.91296940  0.61511478  0.20303056    -0.74400
O2210       O  0.87672828  0.62166179  0.15605492    -0.80100
O2211       O  0.91365334  0.60301874  0.14672901    -0.78300
O2212       O  0.93466450  0.66068110  0.16148328    -1.14400
O2213       O  0.96839138  0.64152493  0.13661678    -0.73600
C2214       C  0.49162420  0.66359285  0.14118689     0.97100
C2215       C  0.91226751  0.69898826  0.19479870     0.93500
Al2216     Al  0.90574954  0.64531812  0.19198050     1.55600
O2217       O  0.95858257  0.71065899  0.12732639    -0.78200
C2218       C  0.90741972  0.59578783  0.17965782     0.97700
C2219       C  0.95528540  0.68008171  0.23991378     0.92500
O2220       O  0.97099114  0.68298308  0.21343487    -0.83600
C2221       C  0.96980970  0.69835846  0.27212826    -0.07300
C2222       C  0.99997963  0.71173071  0.27316598    -0.18500
C2223       C  0.51625424  0.74072776  0.29359402     0.09900
C2224       C  0.50176663  0.74999569  0.31703359    -0.07300
C2225       C  0.97288889  0.73366663  0.31663751    -0.18500
C2226       C  0.95624817  0.70868969  0.29602611     0.09900
S2227       S  0.55474337  0.75929532  0.29000286    -0.33500
S2228       S  0.91809110  0.69063353  0.30248372    -0.33500
H2229       H  0.91474273  0.66263908  0.30076745     0.27900
H2230       H  0.55925881  0.78666578  0.30072106     0.27900
H2231       H  0.51239815  0.71019947  0.25347133     0.18500
H2232       H  0.96224279  0.74135779  0.33486529     0.18500
C2233       C  0.50522785  0.77253864  0.02442775    -0.07300
C2234       C  0.52097654  0.76380916  0.04569528    -0.18500
C2235       C  0.50733423  0.74032108  0.06933397     0.09900
C2236       C  0.97703130  0.72480500  0.06948438    -0.07300
C2237       C  0.96178187  0.73642352  0.05256933    -0.18500
C2238       C  0.97566045  0.76084700  0.03029245     0.09900
S2239       S  0.52893212  0.73019233  0.09584739    -0.33500
S2240       S  0.95401287  0.77445495  0.01075790    -0.33500
H2241       H  0.97834687  0.79997493  0.50074158     0.27900
H2242       H  0.55576968  0.75348881  0.08602560     0.27900
H2243       H  0.54392763  0.77410094  0.04201594     0.18500
H2244       H  0.93895856  0.72670660  0.05728069     0.18500
C2245       C  0.62600467  0.86655750  0.35318383    -0.07300
C2246       C  0.62749825  0.85604154  0.31896668    -0.18500
C2247       C  0.65060810  0.87184355  0.29573591     0.09900
C2248       C  0.67354794  0.89873900  0.30689229    -0.07300
C2249       C  0.67153608  0.91006582  0.34028769    -0.18500
C2250       C  0.64794550  0.89440635  0.36335238     0.09900
S2251       S  0.64953766  0.85644610  0.25203537    -0.33500
S2252       S  0.64601010  0.91064589  0.40506710    -0.33500
H2253       H  0.66636605  0.93927856  0.39588084     0.27900
H2254       H  0.66637076  0.88314362  0.23457920     0.27900
H2255       H  0.61036750  0.83525836  0.31004789     0.18500
H2256       H  0.68910948  0.93056166  0.34911488     0.18500
C2257       C  0.88858994  0.56509112  0.19088138    -0.07300
C2258       C  0.88350915  0.55935535  0.22806984    -0.18500
C2259       C  0.85972835  0.53415283  0.24095119     0.09900
C2260       C  0.84002222  0.51435407  0.21632410    -0.07300
C2261       C  0.84623721  0.51854241  0.17945732    -0.18500
C2262       C  0.87043116  0.54327589  0.16646497     0.09900
S2263       S  0.85579970  0.52868281  0.28888810    -0.33500
S2264       S  0.87550742  0.54614929  0.11844253    -0.33500
H2265       H  0.90502996  0.55602362  0.12044163     0.27900
H2266       H  0.83935107  0.49830364  0.28798221     0.27900
H2267       H  0.89746589  0.57526549  0.24744430     0.18500
H2268       H  0.83165606  0.50265570  0.16047896     0.18500
C2269       C  0.71830950  0.00017213  0.11207365    -0.07300
C2270       C  0.71775141  0.97383488  0.10402070    -0.18500
C2271       C  0.72619094  0.95996370  0.12883352     0.09900
C2272       C  0.73508123  0.97220124  0.16304003    -0.07300
C2273       C  0.73794854  0.50118122  0.16932801    -0.18500
C2274       C  0.73044967  0.51563866  0.14378693     0.09900
S2275       S  0.72489418  0.92666786  0.11527887    -0.33500
S2276       S  0.73568044  0.55124649  0.15380425    -0.33500
H2277       H  0.75037823  0.55524716  0.18628369     0.27900
H2278       H  0.71589699  0.91306574  0.14895208     0.27900
H2279       H  0.71147296  0.96415961  0.07762955     0.18500
H2280       H  0.74674579  0.51150851  0.19485725     0.18500
C2281       C  0.76165498  0.96740210  0.36395619    -0.07300
C2282       C  0.74145646  0.95053411  0.39029406    -0.18500
C2283       C  0.73136732  0.96323586  0.41560602     0.09900
C2284       C  0.73945187  0.99290623  0.41253801    -0.07300
C2285       C  0.75859470  0.50996921  0.38613852    -0.18500
C2286       C  0.77294753  0.99798932  0.36511551     0.09900
S2287       S  0.70873754  0.94154675  0.45219356    -0.33500
S2288       S  0.79523189  0.52391333  0.32873165    -0.33500
H2289       H  0.81771388  0.00686798  0.34409274     0.27900
H2290       H  0.71067345  0.91655009  0.44484592     0.27900
H2291       H  0.73303643  0.92732762  0.39054890     0.18500
H2292       H  0.76442186  0.53262508  0.38513986     0.18500
C2293       C  0.80423532  0.56913419  0.05407811    -0.07300
C2294       C  0.80301778  0.56298152  0.09090790    -0.18500
C2295       C  0.82586069  0.58018174  0.11401185     0.09900
C2296       C  0.85094465  0.60428049  0.09991814    -0.07300
C2297       C  0.85240197  0.60939661  0.06255872    -0.18500
C2298       C  0.82948189  0.59221428  0.03973855     0.09900
S2299       S  0.82179910  0.57104505  0.16125120    -0.33500
S2300       S  0.83265895  0.59950335  0.99205931    -0.33500
H2301       H  0.86047293  0.62347888  0.99251887     0.27900
H2302       H  0.79837744  0.54292307  0.15776236     0.27900
H2303       H  0.78334592  0.54568387  0.10201791     0.18500
H2304       H  0.87158464  0.62712145  0.05105704     0.18500
C2305       C  0.63555614  0.95412206  0.47402128    -0.07300
C2306       C  0.61968890  0.95419278  0.44407708    -0.18500
C2307       C  0.59535940  0.92887088  0.43255614     0.09900
C2308       C  0.58644598  0.90277036  0.45140527    -0.07300
C2309       C  0.60077167  0.90371802  0.48357296    -0.18500
C2310       C  0.62538704  0.92878017  0.49461223     0.09900
S2311       S  0.57729722  0.93112901  0.39323240    -0.33500
S2312       S  0.64361262  0.92800751  0.53488306    -0.33500
H2313       H  0.62802879  0.89790143  0.54053055     0.27900
H2314       H  0.54996177  0.90967931  0.40471619     0.27900
H2315       H  0.62702548  0.97383798  0.42850411     0.18500
H2316       H  0.59389692  0.88419433  0.49913225     0.18500
C2317       C  0.57217129  0.66844241  0.11560498    -0.07300
C2318       C  0.55029410  0.65826504  0.08997382    -0.18500
C2319       C  0.52326082  0.65454228  0.09851103     0.09900
C2320       C  0.51815424  0.66275615  0.13280358    -0.07300
C2321       C  0.53903640  0.67091618  0.15918885    -0.18500
C2322       C  0.56550034  0.67269495  0.15157264     0.09900
S2323       S  0.49678727  0.64132711  0.06368357    -0.33500
S2324       S  0.59000489  0.68036360  0.18845369    -0.33500
H2325       H  0.57371688  0.68433941  0.21535333     0.27900
H2326       H  0.97805283  0.62092222  0.08046060     0.27900
H2327       H  0.55452155  0.65422215  0.06263575     0.18500
H2328       H  0.53443325  0.67580719  0.18589732     0.18500
C2329       C  0.58108842  0.75970845  0.46586347    -0.07300
C2330       C  0.61124041  0.77649938  0.46718823    -0.18500
C2331       C  0.62734991  0.77169135  0.49274942     0.09900
C2332       C  0.61269506  0.74815679  0.02386112    -0.07300
C2333       C  0.58262240  0.73120446  0.02325857    -0.18500
C2334       C  0.56738604  0.73594727  0.48979767     0.09900
S2335       S  0.66567264  0.79508872  0.49164952    -0.33500
S2336       S  0.52786983  0.71231128  0.99651911    -0.33500
H2337       H  0.52808234  0.69229131  0.51434041     0.27900
H2338       H  0.66951121  0.79148882  0.03222138     0.27900
H2339       H  0.62262682  0.79449946  0.44884532     0.18500
H2340       H  0.57223529  0.71335267  0.04200280     0.18500
C2341       C  0.72043600  0.80129587  0.13950322    -0.07300
C2342       C  0.71987424  0.79701484  0.17680647    -0.18500
C2343       C  0.72454682  0.81904748  0.20142921     0.09900
C2344       C  0.73050799  0.84664635  0.18865778    -0.07300
C2345       C  0.73202453  0.85092316  0.15095900    -0.18500
C2346       C  0.72677824  0.82860613  0.12654419     0.09900
S2347       S  0.72002694  0.80934216  0.24830656    -0.33500
S2348       S  0.72776836  0.83480516  0.07871114    -0.33500
H2349       H  0.73480516  0.86405404  0.08067629     0.27900
H2350       H  0.74749878  0.83099466  0.25792087     0.27900
H2351       H  0.71399960  0.77569816  0.18699212     0.18500
H2352       H  0.73701513  0.87183901  0.14028003     0.18500
C2353       C  0.66581755  0.63286975  0.05159713    -0.07300
C2354       C  0.65564269  0.61993113  0.01792744    -0.18500
C2355       C  0.65704599  0.59530545  0.00733617     0.09900
C2356       C  0.66900542  0.58343971  0.03093886    -0.07300
C2357       C  0.67538080  0.59434341  0.06645450    -0.18500
C2358       C  0.67443213  0.61920965  0.07671057     0.09900
S2359       S  0.63933000  0.57557124  0.47238428    -0.33500
S2360       S  0.68482595  0.63379608  0.12151489    -0.33500
H2361       H  0.68962206  0.61183503  0.13490453     0.27900
H2362       H  0.63343753  0.54850104  0.48613746     0.27900
H2363       H  0.64782430  0.62990097  0.99911936     0.18500
H2364       H  0.68340304  0.58485471  0.08559503     0.18500
C2365       C  0.86644053  0.72074560  0.27251538    -0.07300
C2366       C  0.89616320  0.73862821  0.26903597    -0.18500
C2367       C  0.91164728  0.73437624  0.24132877     0.09900
C2368       C  0.89735168  0.71089659  0.21730982    -0.07300
C2369       C  0.86731227  0.69373634  0.22045675    -0.18500
C2370       C  0.85197756  0.69812746  0.24779121     0.09900
S2371       S  0.94924776  0.75986830  0.23770651    -0.33500
S2372       S  0.81387416  0.67370383  0.25013895    -0.33500
H2373       H  0.81089952  0.67687994  0.28723635     0.27900
H2374       H  0.94905452  0.76136323  0.19995602     0.27900
H2375       H  0.90718693  0.75684865  0.28697014     0.18500
H2376       H  0.85549731  0.67563980  0.20246177     0.18500
C2377       C  0.90945389  0.80397130  0.35818825    -0.07300
C2378       C  0.92928672  0.80597865  0.33201517    -0.18500
C2379       C  0.95485735  0.80691702  0.34169113     0.09900
C2380       C  0.96051677  0.80456899  0.37819793    -0.07300
C2381       C  0.94232464  0.80556656  0.40452066    -0.18500
C2382       C  0.91740809  0.80628547  0.39498590     0.09900
S2383       S  0.97927647  0.81052136  0.30624038    -0.33500
S2384       S  0.89637656  0.81058372  0.43020750    -0.33500
H2385       H  0.91599921  0.81677403  0.45818191     0.27900
H2386       H  0.46501691  0.82041887  0.28249986     0.27900
H2387       H  0.92441288  0.80566979  0.30378505     0.18500
H2388       H  0.94773294  0.80586374  0.43253870     0.18500
C2389       C  0.77915277  0.75501938  0.44246119    -0.07300
C2390       C  0.75925851  0.72610236  0.44995082    -0.18500
C2391       C  0.73427299  0.71825110  0.46957796     0.09900
C2392       C  0.72937931  0.74005705  0.48390890    -0.07300
C2393       C  0.75002786  0.76928097  0.47810687    -0.18500
C2394       C  0.77454733  0.77694155  0.45708004     0.09900
S2395       S  0.70909665  0.68026773  0.47601937    -0.33500
S2396       S  0.79929906  0.81486170  0.44990371    -0.33500
H2397       H  0.82305577  0.81145893  0.44162487     0.27900
H2398       H  0.73972838  0.67202344  0.98084549     0.27900
H2399       H  0.76217341  0.70921416  0.43793095     0.18500
H2400       H  0.74710474  0.78625692  0.49029548     0.18500
C2401       C  0.74943405  0.72732706  0.24153151    -0.07300
C2402       C  0.72331063  0.72608586  0.25085916    -0.18500
C2403       C  0.70226331  0.72082490  0.22493941     0.09900
C2404       C  0.70691316  0.71575399  0.18897919    -0.07300
C2405       C  0.73280287  0.71621930  0.18014674    -0.18500
C2406       C  0.75393960  0.72207803  0.20566414     0.09900
S2407       S  0.66969461  0.72044875  0.23801334    -0.33500
S2408       S  0.78609503  0.72242738  0.19067453    -0.33500
H2409       H  0.79059004  0.71159063  0.22288001     0.27900
H2410       H  0.67727403  0.72884312  0.27396079     0.27900
H2411       H  0.71984226  0.73028705  0.27843122     0.18500
H2412       H  0.73715861  0.71270367  0.15265050     0.18500
C2413       C  0.75219733  0.62163355  0.44118800    -0.07300
C2414       C  0.73746404  0.61850725  0.40874908    -0.18500
C2415       C  0.74411003  0.64223299  0.38629953     0.09900
C2416       C  0.76650209  0.66973669  0.39579412    -0.07300
C2417       C  0.78123851  0.67284760  0.42812501    -0.18500
C2418       C  0.77407691  0.64939649  0.45110333     0.09900
S2419       S  0.72443726  0.63573086  0.34515437    -0.33500
S2420       S  0.79451653  0.65619930  0.49167193    -0.33500
H2421       H  0.79588477  0.63044765  0.48997721     0.27900
H2422       H  0.72710495  0.66335245  0.34272131     0.27900
H2423       H  0.72031301  0.59736768  0.40094112     0.18500
H2424       H  0.79893626  0.69383671  0.43532508     0.18500
C2425       C  0.80857228  0.83217221  0.29523319    -0.07300
C2426       C  0.81610867  0.85487644  0.31967656    -0.18500
C2427       C  0.81671982  0.88052407  0.30921333     0.09900
C2428       C  0.80908773  0.88336425  0.27371369    -0.07300
C2429       C  0.80481802  0.86192527  0.24840147    -0.18500
C2430       C  0.80404353  0.83630165  0.25892821     0.09900
S2431       S  0.82720881  0.90880147  0.34233118    -0.33500
S2432       S  0.79504228  0.80868711  0.22543017    -0.33500
H2433       H  0.77212523  0.78796292  0.24608955     0.27900
H2434       H  0.83680900  0.93152564  0.31720798     0.27900
H2435       H  0.82134797  0.85253910  0.34707434     0.18500
H2436       H  0.79895009  0.86359294  0.22107680     0.18500
O2437       O  0.78522449  0.78508053  0.81557423    -0.83000
C2438       C  0.85072027  0.73327838  0.79254351     0.96300
O2439       O  0.83597742  0.74187500  0.77604725    -0.72100
O2440       O  0.79906443  0.75976071  0.76139394    -0.75700
Al2441     Al  0.83289140  0.77364718  0.79228933     1.49000
C2442       C  0.77310687  0.73988059  0.76558281     0.91600
O2443       O  0.76443420  0.71083757  0.86361764    -0.81900
O2444       O  0.80819378  0.74542521  0.90446446    -0.75500
Al2445     Al  0.77832269  0.74875081  0.83840397     1.90100
O2446       O  0.80080648  0.70353978  0.85468742    -0.74600
O2447       O  0.85759845  0.77972311  0.87175960    -0.74400
O2448       O  0.85266079  0.73529747  0.82665917    -0.80100
O2449       O  0.87088541  0.79101711  0.81585689    -0.78300
O2450       O  0.81320711  0.75465181  0.83069374    -1.14400
O2451       O  0.83156392  0.80731887  0.80477318    -0.73600
C2452       C  0.80837691  0.80769725  0.80656113     0.97100
C2453       C  0.77602610  0.69493878  0.86692564     0.93500
Al2454     Al  0.82884672  0.74206777  0.86213860     1.55600
O2455       O  0.76440486  0.72785130  0.79569625    -0.78200
C2456       C  0.87728458  0.79241745  0.84910722     0.97700
C2457       C  0.79366370  0.75830706  0.90827721     0.92500
O2458       O  0.78928459  0.76978318  0.88149613    -0.83600
O2459       O  0.69545903  0.68853432  0.56232850    -0.83000
C2460       C  0.63037501  0.73991241  0.54016069     0.96300
O2461       O  0.64479993  0.73082513  0.52341538    -0.72100
O2462       O  0.68152376  0.71235244  0.50825912    -0.75700
Al2463     Al  0.64787307  0.69940410  0.54034828     1.49000
C2464       C  0.70719066  0.73302957  0.51175728     0.91600
O2465       O  0.71721727  0.76271203  0.60910645    -0.81900
O2466       O  0.67449869  0.72938418  0.65209816    -0.75500
Al2467     Al  0.70266754  0.72504269  0.58419577     1.90100
O2468       O  0.68161293  0.77127553  0.60177417    -0.74600
O2469       O  0.62426065  0.69517925  0.62064278    -0.74400
O2470       O  0.62913033  0.73904714  0.57452216    -0.80100
O2471       O  0.61028330  0.68277596  0.56532268    -0.78300
O2472       O  0.66798876  0.71924777  0.57794154    -1.14400
O2473       O  0.64900640  0.66598411  0.55377004    -0.73600
C2474       C  0.67199465  0.66538788  0.55648296     0.97100
C2475       C  0.70646501  0.77924739  0.61284522     0.93500
Al2476     Al  0.65314687  0.73260178  0.60997316     1.55600
O2477       O  0.71556566  0.74585298  0.54134828    -0.78200
C2478       C  0.60435340  0.68178321  0.59882550     0.97700
C2479       C  0.68929498  0.71661173  0.65427488     0.92500
O2480       O  0.69188928  0.70420293  0.62701560    -0.83600
O2481       O  0.68474219  0.97888280  0.49186205    -0.83000
C2482       C  0.73950577  0.59544910  0.96031523     0.96300
O2483       O  0.73082219  0.57165735  0.94431590    -0.72100
O2484       O  0.71266149  0.51547521  0.93228142    -0.75700
Al2485     Al  0.69934759  0.53765972  0.96194719     1.49000
C2486       C  0.73086702  0.50720164  0.93859529     0.91600
O2487       O  0.76036021  0.52841891  0.53745173    -0.81900
O2488       O  0.72988661  0.54307824  0.57772205    -0.75500
Al2489     Al  0.72205847  0.50606144  0.51380331     1.90100
O2490       O  0.77090298  0.57331514  0.52597293    -0.74600
O2491       O  0.69688617  0.55986553  0.54384443    -0.74400
O2492       O  0.73878659  0.59620910  0.99450537    -0.80100
O2493       O  0.68299362  0.55980768  0.98532619    -0.78300
O2494       O  0.71952832  0.53690422  0.50357566    -1.14400
O2495       O  0.66480640  0.00517943  0.97593085    -0.73600
C2496       C  0.66202495  0.98058589  0.98106464     0.97100
C2497       C  0.77821191  0.55568311  0.53754794     0.93500
Al2498     Al  0.73359637  0.56610781  0.53412754     1.55600
O2499       O  0.73942955  0.00826695  0.97117628    -0.78200
C2500       C  0.68492104  0.56734795  0.52064809     0.97700
C2501       C  0.71513065  0.51581411  0.58208852     0.92500
O2502       O  0.70029570  0.00226553  0.55484434    -0.83600
O2503       O  0.79212468  0.99242990  0.73902356    -0.83000
C2504       C  0.73790507  0.87517300  0.71092085     0.96300
O2505       O  0.74472658  0.89900399  0.69617261    -0.72100
O2506       O  0.76320015  0.95439331  0.68313130    -0.75700
Al2507     Al  0.77730232  0.93271385  0.71114599     1.49000
C2508       C  0.74459561  0.96197455  0.69039857     0.91600
O2509       O  0.71911348  0.94031033  0.78793501    -0.81900
O2510       O  0.75230557  0.92792865  0.82620336    -0.75500
Al2511     Al  0.75650561  0.96368035  0.76223242     1.90100
O2512       O  0.71033636  0.89589888  0.77684532    -0.74600
O2513       O  0.78533530  0.91137082  0.78929145    -0.74400
O2514       O  0.74029687  0.87442150  0.74495009    -0.80100
O2515       O  0.79463125  0.91073793  0.73180858    -0.78300
O2516       O  0.76037975  0.93360287  0.75137170    -1.14400
O2517       O  0.81146581  0.96619142  0.72210042    -0.73600
C2518       C  0.81472214  0.48999305  0.72827862     0.97100
C2519       C  0.70213595  0.91288674  0.78859274     0.93500
Al2520     Al  0.74810141  0.90447015  0.78212960     1.55600
O2521       O  0.73509688  0.96012088  0.72177921    -0.78200
C2522       C  0.79741520  0.90513895  0.76445195     0.97700
C2523       C  0.76590858  0.95542497  0.82980672     0.92500
O2524       O  0.77865711  0.97029968  0.80302773    -0.83600
O2525       O  0.98495806  0.78158390  0.89925568    -0.83000
C2526       C  0.60094322  0.84703797  0.87629187     0.96300
O2527       O  0.57800541  0.83183557  0.85955832    -0.72100
O2528       O  0.52347790  0.79427881  0.84440100    -0.75700
Al2529     Al  0.54335499  0.82862854  0.87581238     1.49000
C2530       C  0.51757650  0.76805474  0.84873174     0.91600
O2531       O  0.53759956  0.75905938  0.94688414    -0.81900
O2532       O  0.54625112  0.80335123  0.98769793    -0.75500
Al2533     Al  0.51384924  0.77329443  0.92147133     1.90100
O2534       O  0.58025283  0.79572302  0.93712577    -0.74600
O2535       O  0.56127105  0.85327421  0.95595174    -0.74400
O2536       O  0.60038237  0.84824321  0.91049523    -0.80100
O2537       O  0.56367133  0.86708334  0.90023000    -0.78300
O2538       O  0.54238948  0.80857847  0.91403608    -1.14400
O2539       O  0.00898634  0.82818353  0.88645046    -0.73600
C2540       C  0.98564608  0.80492757  0.88939327     0.97100
C2541       C  0.56481630  0.77069684  0.94964229     0.93500
Al2542     Al  0.57007686  0.82414370  0.94557920     1.55600
O2543       O  0.52099786  0.75936654  0.87868633    -0.78200
C2544       C  0.56800897  0.87335706  0.93366309     0.97700
C2545       C  0.51915431  0.78920537  0.99134241     0.92500
O2546       O  0.50376922  0.78436151  0.96430511    -0.83600
O2547       O  0.49455779  0.68680592  0.65051340    -0.83000
C2548       C  0.87821019  0.62513748  0.62404859     0.96300
O2549       O  0.90141240  0.64131739  0.60775134    -0.72100
O2550       O  0.95723186  0.67799637  0.59389911    -0.75700
Al2551     Al  0.93555740  0.64283104  0.62332627     1.49000
C2552       C  0.96559862  0.70464207  0.60011665     0.91600
O2553       O  0.94335906  0.71114815  0.69725805    -0.81900
O2554       O  0.93081749  0.66647898  0.73777418    -0.75500
Al2555     Al  0.96639037  0.69563062  0.67286463     1.90100
O2556       O  0.90000082  0.67622835  0.68581232    -0.74600
O2557       O  0.91457920  0.61545677  0.70294272    -0.74400
O2558       O  0.87835680  0.62366518  0.65817248    -0.80100
O2559       O  0.91419830  0.60435873  0.64589073    -0.78300
O2560       O  0.93668162  0.66180539  0.66286877    -1.14400
O2561       O  0.96882024  0.64163107  0.63438393    -0.73600
C2562       C  0.49372816  0.66345545  0.64042519     0.97100
C2563       C  0.91627754  0.70104809  0.69840367     0.93500
Al2564     Al  0.90799717  0.64643134  0.69394328     1.55600
O2565       O  0.96340075  0.71308439  0.63096571    -0.78200
C2566       C  0.90846306  0.59656398  0.67872308     0.97700
C2567       C  0.95786735  0.67957438  0.74158852     0.92500
O2568       O  0.97275104  0.68077796  0.71502623    -0.83600
C2569       C  0.97313593  0.69943719  0.77237073    -0.07300
C2570       C  0.00139947  0.72214885  0.76563206    -0.18500
C2571       C  0.51820030  0.73913104  0.79498186     0.09900
C2572       C  0.50315980  0.74590648  0.82075146    -0.07300
C2573       C  0.97502772  0.72251875  0.82980691    -0.18500
C2574       C  0.96005818  0.69973385  0.80535724     0.09900
S2575       S  0.55656324  0.75997484  0.78933996    -0.33500
S2576       S  0.92451588  0.67209303  0.81778355    -0.33500
H2577       H  0.92716700  0.64925844  0.80240152     0.27900
H2578       H  0.56340703  0.77221324  0.82385521     0.27900
H2579       H  0.51509919  0.71170244  0.75122561     0.18500
H2580       H  0.96479193  0.72258110  0.85501786     0.18500
C2581       C  0.50622431  0.77067451  0.52272803    -0.07300
C2582       C  0.52186074  0.76049625  0.54171826    -0.18500
C2583       C  0.50830994  0.73706101  0.56541428     0.09900
C2584       C  0.98039828  0.72707071  0.57248340    -0.07300
C2585       C  0.96472547  0.73657486  0.55249058    -0.18500
C2586       C  0.97833734  0.75934683  0.52786784     0.09900
S2587       S  0.52969551  0.72479563  0.58851167    -0.33500
S2588       S  0.95633771  0.77113547  0.50521463    -0.33500
H2589       H  0.97635066  0.80328401  0.00787129     0.27900
H2590       H  0.55665132  0.74718121  0.57737724     0.27900
H2591       H  0.54447427  0.76959318  0.53612802     0.18500
H2592       H  0.94179510  0.72644780  0.55643501     0.18500
C2593       C  0.62748603  0.86490018  0.85464736    -0.07300
C2594       C  0.62872404  0.85563971  0.81952321    -0.18500
C2595       C  0.65136563  0.87249520  0.79606510     0.09900
C2596       C  0.67414600  0.89935884  0.80768265    -0.07300
C2597       C  0.67262722  0.90924382  0.84228934    -0.18500
C2598       C  0.64957796  0.89244462  0.86575762     0.09900
S2599       S  0.64999411  0.85833434  0.75145723    -0.33500
S2600       S  0.64887630  0.90676838  0.90949571    -0.33500
H2601       H  0.66791036  0.93594308  0.90096504     0.27900
H2602       H  0.66620516  0.88550729  0.73481849     0.27900
H2603       H  0.61168720  0.83503391  0.80998126     0.18500
H2604       H  0.69026439  0.92946444  0.85169764     0.18500
C2605       C  0.88954225  0.56575054  0.68915723    -0.07300
C2606       C  0.88649676  0.55907888  0.72616111    -0.18500
C2607       C  0.86275825  0.53420995  0.73976573     0.09900
C2608       C  0.84087959  0.51594096  0.71620020    -0.07300
C2609       C  0.84498406  0.52092581  0.67908286    -0.18500
C2610       C  0.86930224  0.54510567  0.66521699     0.09900
S2611       S  0.86157428  0.52747304  0.78734356    -0.33500
S2612       S  0.87207002  0.54882033  0.61701734    -0.33500
H2613       H  0.90134930  0.55735620  0.61611746     0.27900
H2614       H  0.84342035  0.49732847  0.78595857     0.27900
H2615       H  0.90211725  0.57406946  0.74498111     0.18500
H2616       H  0.82889946  0.50591887  0.66069463     0.18500
C2617       C  0.71829123  0.00327624  0.61215248    -0.07300
C2618       C  0.71317216  0.97468180  0.60669345    -0.18500
C2619       C  0.72133420  0.96067334  0.63165289     0.09900
C2620       C  0.73499094  0.97522638  0.66318731    -0.07300
C2621       C  0.74058598  0.50000251  0.66973570    -0.18500
C2622       C  0.73218452  0.51433507  0.64525314     0.09900
S2623       S  0.71354495  0.92417903  0.62187522    -0.33500
S2624       S  0.73722932  0.54971097  0.65630565    -0.33500
H2625       H  0.75336237  0.55399329  0.68757527     0.27900
H2626       H  0.70811105  0.91442328  0.65768810     0.27900
H2627       H  0.70348322  0.96315228  0.58208817     0.18500
H2628       H  0.74997352  0.51027123  0.69507744     0.18500
C2629       C  0.76112568  0.97032813  0.86109585    -0.07300
C2630       C  0.74440160  0.95347735  0.89003397    -0.18500
C2631       C  0.73385713  0.96504379  0.91612111     0.09900
C2632       C  0.73874184  0.99364634  0.91225795    -0.07300
C2633       C  0.76195007  0.51088116  0.88757375    -0.18500
C2634       C  0.76831464  0.00013870  0.85957923     0.09900
S2635       S  0.71398474  0.94298197  0.95414700    -0.33500
S2636       S  0.80536610  0.52368460  0.83857135    -0.33500
H2637       H  0.79338315  0.05067533  0.83962502     0.27900
H2638       H  0.71353303  0.91738304  0.94311021     0.27900
H2639       H  0.73907869  0.93101828  0.89178862     0.18500
H2640       H  0.77023377  0.53407033  0.88831264     0.18500
C2641       C  0.80572126  0.56850892  0.55708145    -0.07300
C2642       C  0.80481671  0.56317752  0.59410206    -0.18500
C2643       C  0.82735034  0.58159271  0.61696379     0.09900
C2644       C  0.85209099  0.60583607  0.60236622    -0.07300
C2645       C  0.85331521  0.61010845  0.56483008    -0.18500
C2646       C  0.83046870  0.59204804  0.54234934     0.09900
S2647       S  0.82310137  0.57400648  0.66462402    -0.33500
S2648       S  0.83275279  0.59928999  0.49465065    -0.33500
H2649       H  0.85882961  0.62551664  0.49525868     0.27900
H2650       H  0.80071610  0.54523891  0.66197082     0.27900
H2651       H  0.78539174  0.54574781  0.60558327     0.18500
H2652       H  0.87220203  0.62795198  0.55291810     0.18500
C2653       C  0.63452924  0.95492758  0.97149206    -0.07300
C2654       C  0.62323922  0.95350019  0.93708530    -0.18500
C2655       C  0.59910229  0.92825721  0.92488134     0.09900
C2656       C  0.58600124  0.90362180  0.94741749    -0.07300
C2657       C  0.59535440  0.90676350  0.98348879    -0.18500
C2658       C  0.61955436  0.93191942  0.99550899     0.09900
S2659       S  0.58708539  0.92856253  0.87996874    -0.33500
S2660       S  0.63140944  0.93444237  0.04134739    -0.33500
H2661       H  0.60798658  0.90843933  0.05360225     0.27900
H2662       H  0.55792327  0.91089260  0.88850196     0.27900
H2663       H  0.63408315  0.97175364  0.91895829     0.18500
H2664       H  0.58502727  0.88867250  0.00186059     0.18500
C2665       C  0.57436224  0.66990590  0.61224008    -0.07300
C2666       C  0.55204392  0.65910951  0.58720054    -0.18500
C2667       C  0.52493943  0.65508297  0.59647023     0.09900
C2668       C  0.52032071  0.66318333  0.63107627    -0.07300
C2669       C  0.54168602  0.67196930  0.65680220    -0.18500
C2670       C  0.56820987  0.67432502  0.64841100     0.09900
S2671       S  0.49722982  0.64195887  0.56293284    -0.33500
S2672       S  0.59360794  0.68360840  0.68461299    -0.33500
H2673       H  0.57493485  0.68034526  0.71318142     0.27900
H2674       H  0.01320229  0.64478428  0.53184925     0.27900
H2675       H  0.55623572  0.65529216  0.55977874     0.18500
H2676       H  0.53752348  0.67718473  0.68357097     0.18500
C2677       C  0.57983674  0.75874965  0.97214368    -0.07300
C2678       C  0.61005160  0.77467407  0.97233188    -0.18500
C2679       C  0.62630238  0.76987169  0.99767162     0.09900
C2680       C  0.61357882  0.74927698  0.51808555    -0.07300
C2681       C  0.58374167  0.73122274  0.51580193    -0.18500
C2682       C  0.56607625  0.73605731  0.99756131     0.09900
S2683       S  0.66467885  0.79247846  0.99528439    -0.33500
S2684       S  0.52951459  0.71090666  0.48672294    -0.33500
H2685       H  0.52602319  0.69693227  0.02791715     0.27900
H2686       H  0.67012277  0.79301804  0.52846507     0.27900
H2687       H  0.62147101  0.79198432  0.95311297     0.18500
H2688       H  0.57342894  0.71275603  0.53367638     0.18500
C2689       C  0.71945787  0.80458085  0.63706240    -0.07300
C2690       C  0.71638640  0.79935192  0.67429047    -0.18500
C2691       C  0.72167220  0.82137215  0.69914908     0.09900
C2692       C  0.73059106  0.84977530  0.68678142    -0.07300
C2693       C  0.73441876  0.85492624  0.64924076    -0.18500
C2694       C  0.72870267  0.83268626  0.62449258     0.09900
S2695       S  0.71460428  0.81113380  0.74573861    -0.33500
S2696       S  0.73281782  0.84004753  0.57681806    -0.33500
H2697       H  0.74501152  0.87030136  0.57948088     0.27900
H2698       H  0.74320797  0.82907364  0.75579819     0.27900
H2699       H  0.70848766  0.77754469  0.68416080     0.18500
H2700       H  0.74166020  0.87649751  0.63893041     0.18500
C2701       C  0.67152960  0.63769524  0.55047717    -0.07300
C2702       C  0.65681344  0.62056417  0.52062048    -0.18500
C2703       C  0.65853488  0.59580069  0.51139555     0.09900
C2704       C  0.67514082  0.58781963  0.53262955    -0.07300
C2705       C  0.68738201  0.60355754  0.56449252    -0.18500
C2706       C  0.68608395  0.62848209  0.57331311     0.09900
S2707       S  0.64412011  0.58083270  0.96326664    -0.33500
S2708       S  0.70296162  0.64826551  0.61386519    -0.33500
H2709       H  0.71605948  0.63202875  0.62363376     0.27900
H2710       H  0.63328330  0.55179693  0.97375972     0.27900
H2711       H  0.64485545  0.62719010  0.50353062     0.18500
H2712       H  0.69960989  0.59742625  0.58171186     0.18500
C2713       C  0.86746701  0.72358172  0.77053185    -0.07300
C2714       C  0.89735166  0.73753980  0.77425758    -0.18500
C2715       C  0.91470379  0.73340788  0.74898919     0.09900
C2716       C  0.90196266  0.71445699  0.71946813    -0.07300
C2717       C  0.87211082  0.70169910  0.71533843    -0.18500
C2718       C  0.85490640  0.70527979  0.74076046     0.09900
S2719       S  0.95269415  0.75305856  0.75590918    -0.33500
S2720       S  0.81671234  0.68440107  0.73468356    -0.33500
H2721       H  0.80953745  0.68237301  0.77142475     0.27900
H2722       H  0.95918635  0.76127469  0.71963942     0.27900
H2723       H  0.90734712  0.75260859  0.79623090     0.18500
H2724       H  0.86157735  0.68705524  0.69313508     0.18500
C2725       C  0.90726197  0.80300344  0.86116243    -0.07300
C2726       C  0.92851980  0.80931095  0.83498893    -0.18500
C2727       C  0.95461877  0.81119295  0.84395034     0.09900
C2728       C  0.95931473  0.80522194  0.87944550    -0.07300
C2729       C  0.93918468  0.80087262  0.90608988    -0.18500
C2730       C  0.91371853  0.80076560  0.89776055     0.09900
S2731       S  0.98047907  0.81940340  0.80852209    -0.33500
S2732       S  0.89009698  0.79776030  0.93455224    -0.33500
H2733       H  0.90746926  0.79816956  0.96284437     0.27900
H2734       H  0.46699521  0.82211678  0.78145186     0.27900
H2735       H  0.92439587  0.81153932  0.80706388     0.18500
H2736       H  0.94364256  0.79779064  0.93354416     0.18500
C2737       C  0.77561914  0.75378939  0.94062763    -0.07300
C2738       C  0.76153335  0.72581104  0.95523258    -0.18500
C2739       C  0.73738180  0.71647299  0.97747186     0.09900
C2740       C  0.72715271  0.73568558  0.98630657    -0.07300
C2741       C  0.74218259  0.76423830  0.97339703    -0.18500
C2742       C  0.76602864  0.77339065  0.95050516     0.09900
S2743       S  0.72000013  0.67989359  0.99436399    -0.33500
S2744       S  0.78342056  0.81036831  0.93488550    -0.33500
H2745       H  0.81044082  0.81275018  0.92957551     0.27900
H2746       H  0.72618157  0.66926100  0.46192051     0.27900
H2747       H  0.76839041  0.71055631  0.94736365     0.18500
H2748       H  0.73543049  0.77959723  0.98149225     0.18500
C2749       C  0.75160447  0.73264562  0.73686536    -0.07300
C2750       C  0.72442571  0.72870948  0.74662255    -0.18500
C2751       C  0.70345380  0.72359337  0.72071573     0.09900
C2752       C  0.70933657  0.72140789  0.68431735    -0.07300
C2753       C  0.73655500  0.72537440  0.67481086    -0.18500
C2754       C  0.75759656  0.73112839  0.70030997     0.09900
S2755       S  0.66932725  0.71936904  0.73432072    -0.33500
S2756       S  0.79143789  0.73605966  0.68422363    -0.33500
H2757       H  0.79636282  0.72319128  0.71413375     0.27900
H2758       H  0.67636756  0.72712994  0.77053761     0.27900
H2759       H  0.71985176  0.73032164  0.77468185     0.18500
H2760       H  0.74187321  0.72442572  0.64686503     0.18500
C2761       C  0.74830151  0.62180426  0.93832664    -0.07300
C2762       C  0.72919290  0.62151893  0.91231571    -0.18500
C2763       C  0.73687590  0.64513231  0.88900565     0.09900
C2764       C  0.76438677  0.66953167  0.89143601    -0.07300
C2765       C  0.78297065  0.67003297  0.91831211    -0.18500
C2766       C  0.77526591  0.64671284  0.94166212     0.09900
S2767       S  0.71116522  0.64237657  0.85625885    -0.33500
S2768       S  0.80122678  0.64970579  0.97414714    -0.33500
H2769       H  0.79401391  0.62047124  0.97229585     0.27900
H2770       H  0.73113325  0.65979287  0.82994173     0.27900
H2771       H  0.70820916  0.60256724  0.90987845     0.18500
H2772       H  0.80403086  0.68882848  0.92097603     0.18500
C2773       C  0.80838472  0.83421763  0.79490358    -0.07300
C2774       C  0.81517520  0.85661636  0.81957342    -0.18500
C2775       C  0.81561426  0.88220452  0.80921497     0.09900
C2776       C  0.80861482  0.88537597  0.77342279    -0.07300
C2777       C  0.80432132  0.86390107  0.74817556    -0.18500
C2778       C  0.80399303  0.83837316  0.75854608     0.09900
S2779       S  0.82471950  0.90972423  0.84312911    -0.33500
S2780       S  0.79681040  0.81078711  0.72529901    -0.33500
H2781       H  0.79088847  0.82405616  0.69651680     0.27900
H2782       H  0.83555614  0.93302700  0.81875750     0.27900
H2783       H  0.81990870  0.85404694  0.84713452     0.18500
H2784       H  0.79891051  0.86602401  0.72082070     0.18500
loop_ 
_geom_bond_atom_site_label_1 
_geom_bond_atom_site_label_2 
_geom_bond_distance 
_geom_bond_site_symmetry_2 
_ccdc_geom_bond_type 
O1           C16   1.274       .  A
O1           Al9   1.969       .  S
C2           O12   1.273       .  A
C2            O3   1.254       .  A
C2          C277   1.471       .  S
O3           Al5   1.861       .  S
O4            C6   1.279       .  A
O4           Al5   1.975       .  S
Al5          O13   2.003       .  S
Al5          O15   1.879       .  S
Al5          O14   1.760       .  S
C6           O19   1.258       .  A
C6          C313   1.482       .  S
O7           C17   1.278       .  A
O7           Al9   1.997       .  S
O8           C21   1.274       .  A
O8          Al18   1.968       .  S
Al9          O22   1.881       .  S
Al9          O19   1.866       .  S
Al9          O14   1.767       .  S
O10          C17   1.258       .  A
O10         Al18   1.871       .  S
O11          C20   1.252       .  A
O11         Al18   1.861       .  S
O12         Al18   1.981       .  S
O13          C20   1.281       .  A
O14         Al18   1.756       .  S
O15          C16   1.258       .  A
C16         C337   1.472       .  S
C17         C328   1.485       .  S
C20         C289   1.502       .  S
C21          O22   1.256       .  A
C21         C301   1.478       .  S
O23          C38   1.274       .  A
O23         Al31   1.955       .  S
C24          O34   1.277       .  A
C24          O25   1.258       .  A
C24         C244   1.478       .  S
O25         Al27   1.872       .  S
O26          C28   1.278       .  A
O26         Al27   1.982       .  S
Al27         O35   1.981       .  S
Al27         O37   1.872       .  S
Al27         O36   1.769       .  S
C28          O41   1.256       .  A
C28         C652   1.478   1_554  S
O29          C39   1.275       .  A
O29         Al31   1.987       .  S
O30          C43   1.277       .  A
O30         Al40   2.002       .  S
Al31         O44   1.862       .  S
Al31         O41   1.865       .  S
Al31         O36   1.752       .  S
O32          C39   1.258       .  A
O32         Al40   1.879       .  S
O33          C42   1.254       .  A
O33         Al40   1.866       .  S
O34         Al40   1.988       .  S
O35          C42   1.279       .  A
O36         Al40   1.759       .  S
O37          C38   1.256       .  A
C38         C265   1.471       .  S
C39         C253   1.479       .  S
C42         C229   1.494       .  S
C43          O44   1.251       .  A
C43         C316   1.491       .  S
O45         C408   1.270       .  A
O45        Al749   1.947   1_556  S
C46          O56   1.274       .  A
C46          O47   1.259       .  A
C46         C325   1.480       .  S
O47         Al49   1.875       .  S
O48          C50   1.279       .  A
O48         Al49   1.982       .  S
Al49         O57   1.981       .  S
Al49        O755   1.872       .  S
Al49        O406   1.770       .  S
C50         O759   1.254       .  A
C50         C892   1.471   1_545  S
O51          C61   1.281       .  A
O51         Al53   2.001       .  S
O52          C65   1.270       .  A
O52         Al62   1.976       .  S
Al53        O741   1.954   1_544  S
Al53        O762   1.872       .  S
Al53       O1107   1.847   1_554  S
Al53         O58   1.757       .  S
O54          C61   1.263       .  A
O54         Al62   1.879       .  S
O55          C64   1.257       .  A
O55         Al62   1.857       .  S
O56        Al410   1.976       .  S
O57         C412   1.278       .  A
O58         Al62   1.765       .  S
O58        Al397   1.765   1_554  S
O59          C60   1.255       .  A
O59        Al745   1.872       .  S
C60         O393   1.273       .  A
C60         C217   1.482       .  S
C61         C205   1.481       .  S
Al62        O404   1.975   1_554  S
O63         C746   1.254       .  A
O63       Al1097   1.849       .  S
C64         O405   1.280   1_554  A
C64         C268   1.489       .  S
C65         O762   1.250       .  A
C65         C877   1.482       .  S
O66         C761   1.249       .  A
O66        Al749   1.868       .  S
O67         C778   1.272       .  A
O67         Al75   1.957       .  S
C68          O78   1.275       .  A
C68          O69   1.258       .  A
C68         C256   1.503       .  S
O69         Al71   1.877       .  S
O70          C72   1.273       .  A
O70         Al71   1.958       .  S
Al71         O79   1.969       .  S
Al71         O81   1.868       .  S
Al71         O80   1.762       .  S
C72          O85   1.252       .  A
C72         C184   1.462       .  S
O73          C83   1.281       .  A
O73         Al75   2.004       .  S
O74          C87   1.275       .  A
O74         Al84   2.000       .  S
Al75         O88   1.862       .  S
Al75         O85   1.846       .  S
Al75         O80   1.752       .  S
O76          C83   1.261       .  A
O76         Al84   1.869       .  S
O77          C86   1.260       .  A
O77         Al84   1.869       .  S
O78         Al84   1.988       .  S
O79          C86   1.278       .  A
O80         Al84   1.770       .  S
O81         C778   1.254       .  A
C82         O763   1.272       .  A
C82         O777   1.254       .  A
C82         C172   1.465   1_565  S
C83         C160   1.486       .  S
C86         C340   1.475       .  S
C87          O88   1.243       .  A
C87         C193   1.495       .  S
O89         C104   1.277       .  A
O89       Al1489   1.976       .  S
C90         O100   1.277       .  A
C90          O91   1.262       .  A
C90         C157   1.504       .  S
O91         Al93   1.883       .  S
O92          C94   1.279       .  A
O92         Al93   1.988       .  S
Al93        O101   2.009       .  S
Al93       O1495   1.880       .  S
Al93        O102   1.765       .  S
C94         O107   1.257       .  A
C94         C136   1.481       .  S
O95         C105   1.282       .  A
O95         Al97   2.009       .  S
O96         C109   1.274       .  A
O96        Al106   1.986       .  S
Al97        O110   1.859       .  S
Al97        O107   1.864       .  S
Al97       O1481   1.964   1_455  S
Al97        O102   1.759       .  S
O98         C105   1.259       .  A
O98        Al106   1.861       .  S
O99         C108   1.254       .  A
O99        Al106   1.867       .  S
O100       Al106   1.992       .  S
O101        C108   1.281       .  A
O102       Al106   1.757       .  S
O103        C104   1.260       .  A
O103      Al1485   1.881       .  S
C104        C292   1.481       .  S
C105        C241   1.502       .  S
C108        C220   1.502       .  S
C109        O110   1.248       .  A
C109        C493   1.490       .  S
O111        C126   1.273       .  A
O111      Al1511   1.950       .  S
C112        O122   1.273       .  A
C112        O113   1.263       .  A
C112        C208   1.503       .  S
O113       Al115   1.888       .  S
O114        C116   1.275       .  A
O114       Al115   1.971       .  S
Al115       O123   1.954       .  S
Al115       O125   1.866       .  S
Al115       O124   1.761       .  S
C116        O129   1.257       .  A
C116        C148   1.473       .  S
O117        C127   1.278       .  A
O117       Al119   1.998       .  S
O118        C131   1.275       .  A
O118       Al128   2.001       .  S
Al119       O132   1.862       .  S
Al119       O129   1.871       .  S
Al119      O1503   1.950       .  S
Al119       O124   1.757       .  S
O120        C127   1.258       .  A
O120       Al128   1.864       .  S
O121        C130   1.263       .  A
O121       Al128   1.879       .  S
O122       Al128   1.973       .  S
O123        C130   1.274       .  A
O124       Al128   1.762       .  S
O125       C1518   1.253       .  A
C126       O1517   1.256       .  A
C126        C232   1.476   1_655  S
C127        C280   1.497       .  S
C130        C169   1.484       .  S
C131        O132   1.250       .  A
C131        C133   1.498       .  S
C133        C134   1.417       .  A
C133        C138   1.416       .  A
C134       C1527   1.398       .  A
C134       H1535   1.083       .  S
C135        C136   1.402       .  A
C135       C1526   1.400       .  A
C135        S139   1.805       .  S
C136       C1529   1.411   1_455  A
C137        C138   1.406       .  A
C137       C1528   1.407       .  A
C137        H144   1.084       .  S
C138        S140   1.800       .  S
S139        H142   1.406       .  S
S140        H141   1.407       .  S
H143       C1526   1.083       .  S
C145        C457   1.479   1_554  S
C145        C146   1.401       .  A
C145       C1542   1.416   1_455  A
C146        C147   1.401       .  A
C146        H155   1.082       .  S
C147       C1540   1.414   1_455  A
C147        S151   1.799       .  S
C148        C149   1.399       .  A
C148       C1539   1.414       .  A
C149        C150   1.401       .  A
C149        H156   1.084       .  S
C150       C1537   1.421       .  A
C150        S152   1.804       .  S
S151        H154   1.406       .  S
S152        H501   1.407       .  S
H153        S500   1.408       .  S
C157        C158   1.410       .  A
C157        C162   1.421       .  A
C158        C159   1.400       .  A
C158        H167   1.084       .  S
C159        C160   1.412       .  A
C159        S163   1.806       .  S
C160        C161   1.405       .  A
C161        C162   1.413       .  A
C161        H168   1.083       .  S
C162        S164   1.802       .  S
S163        H166   1.407       .  S
S164        H165   1.407       .  S
C169        C170   1.411       .  A
C169        C174   1.417       .  A
C170        C171   1.399       .  A
C170        H179   1.084       .  S
C171        C172   1.406       .  A
C171        S175   1.801       .  S
C172        C173   1.400       .  A
C173        C174   1.396       .  A
C173        H180   1.085       .  S
C174        S176   1.802       .  S
S175        H178   1.406   1_545  S
S176        H177   1.408       .  S
C181        C761   1.487       .  S
C181        C182   1.417       .  A
C181        C882   1.411       .  A
C182        C183   1.393       .  A
C182        H191   1.083       .  S
C183        C184   1.399       .  A
C183        S187   1.805       .  S
C184        C881   1.407       .  A
C185        C186   1.403       .  A
C185        C880   1.408   1_545  A
C185        H192   1.083       .  S
C186        C877   1.409       .  A
C186        S188   1.807       .  S
S187        H190   1.406       .  S
S188        H189   1.407       .  S
C193        C194   1.402       .  A
C193        C198   1.433       .  A
C194        C195   1.405       .  A
C194        H203   1.082       .  S
C195        C196   1.416       .  A
C195        S199   1.807       .  S
C196        C746   1.471       .  S
C196        C893   1.388       .  A
C197        C892   1.392   1_545  A
C197        C894   1.403       .  A
C197        H204   1.083       .  S
C198        C893   1.398       .  A
C198        S896   1.808       .  S
S199        H202   1.407       .  S
S200        C894   1.808       .  S
S200        H897   1.406       .  S
H201        S896   1.407       .  S
C205        C206   1.404       .  A
C205        C210   1.405       .  A
C206        C207   1.410       .  A
C206        H215   1.082       .  S
C207        C208   1.422       .  A
C207        S211   1.808       .  S
C208        C209   1.412       .  A
C209        C210   1.404       .  A
C209        H216   1.082       .  S
C210        S212   1.806   1_554  S
S211        H214   1.406       .  S
S212        H213   1.406       .  S
C217        C218   1.409       .  A
C217        C222   1.402       .  A
C218        C219   1.407       .  A
C218        H227   1.084       .  S
C219        C220   1.414       .  A
C219        S223   1.800       .  S
C220        C221   1.419       .  A
C221        C222   1.403       .  A
C221        H228   1.082       .  S
C222        S224   1.808       .  S
S223        H226   1.407       .  S
S224        H225   1.407       .  S
C229        C230   1.405       .  A
C229        C234   1.429       .  A
C230        C231   1.404       .  A
C230        H239   1.082       .  S
C231        C232   1.414       .  A
C231        S235   1.808   1_455  S
C232        C233   1.394       .  A
C233        C234   1.401       .  A
C233        H240   1.083       .  S
C234        S236   1.813       .  S
S235       H1630   1.406   1_655  S
S236        H237   1.406       .  S
H238       S1627   1.406       .  S
C241        C242   1.412       .  A
C241        C246   1.418       .  A
C242        C243   1.396       .  A
C242        H251   1.084       .  S
C243        C592   1.408       .  A
C243        S247   1.807       .  S
C244        C245   1.408       .  A
C244        C591   1.404       .  A
C245        C594   1.415   1_554  A
C245        H252   1.083       .  S
C246        C593   1.416       .  A
C246        S596   1.804       .  S
S247        H598   1.405       .  S
S248        C594   1.806       .  S
S248        H597   1.406   1_556  S
H249        S596   1.404       .  S
H250        S595   1.406       .  S
C253        C254   1.405       .  A
C253        C258   1.403       .  A
C254        C255   1.410       .  A
C254        H263   1.081       .  S
C255        C256   1.418       .  A
C255        S259   1.808       .  S
C256        C257   1.415       .  A
C257        C258   1.404       .  A
C257        H264   1.082       .  S
C258        S260   1.806       .  S
S259        H262   1.406       .  S
S260        H261   1.407       .  S
C265        C266   1.408       .  A
C265        C270   1.400       .  A
C266        C267   1.404       .  A
C266        H275   1.084       .  S
C267        C268   1.412       .  A
C267        S619   1.801   1_554  S
C268        C269   1.415       .  A
C269        C270   1.395       .  A
C269        H276   1.081       .  S
C270        S272   1.809       .  S
S271        C615   1.801       .  S
S271        H274   1.407       .  S
S272        H273   1.406       .  S
C277        C278   1.406       .  A
C277        C282   1.406       .  A
C278        C279   1.408       .  A
C278        H287   1.084       .  S
C279        C280   1.417       .  A
C279        S283   1.800       .  S
C280        C281   1.413       .  A
C281        C282   1.394       .  A
C281        H288   1.084       .  S
C282        S284   1.806       .  S
S283        H286   1.408       .  S
S284        H285   1.407       .  S
C289        C290   1.405       .  A
C289        C294   1.432       .  A
C290        C291   1.403       .  A
C290        H299   1.083       .  S
C291        C292   1.415       .  A
C291        S295   1.798       .  S
C292        C293   1.394       .  A
C293        C294   1.406       .  A
C293        H300   1.082       .  S
C294        S296   1.813       .  S
S295       H1690   1.406       .  S
S296        H297   1.407       .  S
H298       S1687   1.405       .  S
C301        C302   1.400       .  A
C301        C306   1.414       .  A
C302        C303   1.398       .  A
C302        H311   1.081       .  S
C303        C304   1.412       .  A
C303        S307   1.801       .  S
C304        C376   1.479       .  S
C304        C305   1.406       .  A
C305        C306   1.405       .  A
C305        H312   1.084       .  S
C306        S308   1.803       .  S
S307        H658   1.407       .  S
S308        H309   1.407       .  S
H310        S655   1.406       .  S
C313        C314   1.413       .  A
C313        C318   1.405       .  A
C314        C315   1.409       .  A
C314        H323   1.083       .  S
C315        C316   1.406       .  A
C315        S319   1.805       .  S
C316        C317   1.415       .  A
C317        C318   1.398       .  A
C317        H324   1.083       .  S
C318        S320   1.803       .  S
S319        H322   1.406       .  S
S320        H321   1.403       .  S
C325        C326   1.412       .  A
C325        C330   1.403       .  A
C326        C327   1.410       .  A
C326        H335   1.084       .  S
C327        C328   1.410       .  A
C327        S331   1.802       .  S
C328        C329   1.410       .  A
C329        C330   1.395       .  A
C329        H336   1.084       .  S
C330        S332   1.798       .  S
S331        H334   1.405       .  S
S332        H333   1.401       .  S
C337        C338   1.400       .  A
C337        C342   1.413       .  A
C338        C339   1.401       .  A
C338        H347   1.084       .  S
C339        C340   1.416       .  A
C339        S343   1.803       .  S
C340        C341   1.401       .  A
C341        C342   1.400       .  A
C341        H348   1.083       .  S
C342        S344   1.803       .  S
S343        H346   1.408       .  S
S344        H345   1.406       .  S
O349        C364   1.274       .  A
O349       Al357   1.971       .  S
C350        O360   1.272       .  A
C350        O351   1.256       .  A
C350        C625   1.474       .  S
O351       Al353   1.871       .  S
O352        C354   1.279       .  A
O352       Al353   1.976       .  S
Al353       O361   1.998       .  S
Al353       O363   1.875       .  S
Al353       O362   1.758       .  S
C354        O367   1.258       .  A
C354        C661   1.485       .  S
O355        C365   1.282       .  A
O355       Al357   2.011       .  S
O356        C369   1.273       .  A
O356       Al366   1.979       .  S
Al357       O370   1.874       .  S
Al357       O367   1.864       .  S
Al357       O362   1.763       .  S
O358        C365   1.257       .  A
O358       Al366   1.869       .  S
O359        C368   1.253       .  A
O359       Al366   1.856       .  S
O360       Al366   1.976       .  S
O361        C368   1.281       .  A
O362       Al366   1.759       .  S
O363        C364   1.256       .  A
C364        C685   1.473       .  S
C365        C676   1.490       .  S
C368        C637   1.495       .  S
C369        O370   1.252       .  A
C369        C649   1.473       .  S
O371        C386   1.274       .  A
O371       Al379   1.953       .  S
C372        O382   1.278       .  A
C372        O373   1.259       .  A
C372        C592   1.481       .  S
O373       Al375   1.870       .  S
O374        C376   1.276       .  A
O374       Al375   1.979       .  S
Al375       O383   1.975       .  S
Al375       O385   1.866       .  S
Al375       O384   1.766       .  S
C376        O389   1.257       .  A
O377        C387   1.277       .  A
O377       Al379   1.987       .  S
O378        C391   1.276       .  A
O378       Al388   2.006       .  S
Al379       O392   1.863       .  S
Al379       O389   1.876       .  S
Al379       O384   1.750       .  S
O380        C387   1.258       .  A
O380       Al388   1.872       .  S
O381        C390   1.255       .  A
O381       Al388   1.868       .  S
O382       Al388   1.991       .  S
O383        C390   1.278       .  A
O384       Al388   1.764       .  S
O385        C386   1.255       .  A
C386        C613   1.470       .  S
C387        C601   1.479       .  S
C390        C577   1.490       .  S
C391        O392   1.249       .  A
C391        C664   1.490       .  S
O393      Al1097   1.965       .  S
C394        O404   1.272       .  A
C394        O395   1.256       .  A
C394        C673   1.479       .  S
O395       Al397   1.876       .  S
O396        C398   1.279       .  A
O396       Al397   1.973       .  S
Al397       O405   1.990       .  S
Al397      O1103   1.868       .  S
C398       O1107   1.254       .  A
C398       C1240   1.470   1_545  S
O399        C409   1.281       .  A
O399       Al401   1.999       .  S
O400        C413   1.272       .  A
O400       Al410   1.987       .  S
Al401      O1089   1.953   1_545  S
Al401      O1110   1.866       .  S
Al401       O759   1.852       .  S
Al401       O406   1.754       .  S
O402        C409   1.262       .  A
O402       Al410   1.882       .  S
O403        C412   1.257       .  A
O403       Al410   1.865       .  S
O406       Al410   1.764       .  S
O407        C408   1.256       .  A
O407      Al1093   1.880       .  S
C408        C565   1.481       .  S
C409        C553   1.486       .  S
O411       C1094   1.255       .  A
O411       Al749   1.851   1_556  S
C412        C616   1.489       .  S
C413       O1110   1.249       .  A
C413       C1225   1.491       .  S
O414       C1109   1.250       .  A
O414      Al1097   1.871       .  S
O415       C1126   1.272       .  A
O415       Al423   1.961       .  S
C416        O426   1.275       .  A
C416        O417   1.258       .  A
C416        C604   1.498       .  S
O417       Al419   1.869       .  S
O418        C420   1.274       .  A
O418       Al419   1.963       .  S
Al419       O427   1.968       .  S
Al419       O429   1.864       .  S
Al419       O428   1.759       .  S
C420        O433   1.254       .  A
C420        C532   1.471       .  S
O421        C431   1.280       .  A
O421       Al423   1.998       .  S
O422        C435   1.275       .  A
O422       Al432   1.991       .  S
Al423       O436   1.863       .  S
Al423       O433   1.853       .  S
Al423       O428   1.755       .  S
O424        C431   1.258       .  A
O424       Al432   1.862       .  S
O425        C434   1.259       .  A
O425       Al432   1.873       .  S
O426       Al432   1.985       .  S
O427        C434   1.278       .  A
O428       Al432   1.771       .  S
O429       C1126   1.254       .  A
C430       O1111   1.272       .  A
C430       O1125   1.254       .  A
C430        C520   1.471   1_565  S
C431        C508   1.484       .  S
C434        C688   1.483       .  S
C435        O436   1.245       .  A
C435        C541   1.494       .  S
O437        C452   1.275       .  A
O437      Al1837   1.967       .  S
C438        O448   1.275       .  A
C438        O439   1.261       .  A
C438        C505   1.495       .  S
O439       Al441   1.884       .  S
O440        C442   1.278       .  A
O440       Al441   1.983       .  S
Al441       O449   2.000       .  S
Al441      O1843   1.878       .  S
Al441       O450   1.765       .  S
C442        O455   1.258       .  A
C442        C484   1.479       .  S
O443        C453   1.281       .  A
O443       Al445   2.009       .  S
O444        C457   1.273       .  A
O444       Al454   1.972       .  S
Al445      O1829   1.975   1_455  S
Al445       O458   1.874       .  S
Al445       O455   1.875       .  S
Al445       O450   1.762       .  S
O446        C453   1.258       .  A
O446       Al454   1.867       .  S
O447        C456   1.254       .  A
O447       Al454   1.864       .  S
O448       Al454   1.980       .  S
O449        C456   1.279       .  A
O450       Al454   1.753       .  S
O451        C452   1.259       .  A
O451      Al1833   1.878       .  S
C452        C640   1.475       .  S
C453        C589   1.505       .  S
C456        C568   1.497       .  S
C457        O458   1.254       .  A
O459        C474   1.272       .  A
O459      Al1859   1.951       .  S
C460        O470   1.273       .  A
C460        O461   1.264       .  A
C460        C556   1.502       .  S
O461       Al463   1.894       .  S
O462        C464   1.276       .  A
O462       Al463   1.978       .  S
Al463       O471   1.971       .  S
Al463       O473   1.873       .  S
Al463       O472   1.768       .  S
C464        O477   1.255       .  A
C464        C496   1.476       .  S
O465        C475   1.278       .  A
O465       Al467   1.994       .  S
O466        C479   1.273       .  A
O466       Al476   1.993       .  S
Al467      O1851   1.945       .  S
Al467       O480   1.870       .  S
Al467       O477   1.867       .  S
Al467       O472   1.758       .  S
O468        C475   1.258       .  A
O468       Al476   1.861       .  S
O469        C478   1.263       .  A
O469       Al476   1.878       .  S
O470       Al476   1.970       .  S
O471        C478   1.276       .  A
O472       Al476   1.761       .  S
O473       C1866   1.255       .  A
C474       O1865   1.254       .  A
C474        C580   1.470   1_655  S
C475        C628   1.496       .  S
C478        C517   1.492       .  S
C479        O480   1.250       .  A
C479        C481   1.500       .  S
C481        C482   1.415       .  A
C481        C486   1.416       .  A
C482       C1875   1.402       .  A
C482       H1883   1.084       .  S
C483       C1874   1.403       .  A
C483        C484   1.406       .  A
C483        S487   1.807       .  S
C484       C1877   1.407   1_455  A
C485       C1876   1.406       .  A
C485        C486   1.406       .  A
C485        H492   1.084       .  S
C486        S488   1.801       .  S
S487        H490   1.404       .  S
S488        H489   1.407       .  S
H491       C1874   1.084       .  S
C493        C494   1.401       .  A
C493       C1890   1.425   1_455  A
C494        C495   1.404       .  A
C494        H503   1.083       .  S
C495       C1888   1.416   1_455  A
C495        S499   1.805       .  S
C496       C1887   1.415       .  A
C496        C497   1.399       .  A
C497        C498   1.401       .  A
C497        H504   1.084       .  S
C498       C1885   1.420       .  A
C498        S500   1.804       .  S
S499        H502   1.407       .  S
C505        C506   1.406       .  A
C505        C510   1.418       .  A
C506        C507   1.400       .  A
C506        H515   1.084       .  S
C507        C508   1.415       .  A
C507        S511   1.806       .  S
C508        C509   1.404       .  A
C509        C510   1.410       .  A
C509        H516   1.083       .  S
C510        S512   1.801       .  S
S511        H514   1.407       .  S
S512        H513   1.407       .  S
C517        C518   1.412       .  A
C517        C522   1.418       .  A
C518        C519   1.398       .  A
C518        H527   1.084       .  S
C519        C520   1.405       .  A
C519        S523   1.801       .  S
C520        C521   1.403       .  A
C521        C522   1.402       .  A
C521        H528   1.084       .  S
C522        S524   1.801       .  S
S523        H526   1.406   1_545  S
S524        H525   1.408       .  S
C529       C1109   1.486       .  S
C529        C530   1.414       .  A
C529       C1230   1.408       .  A
C530        C531   1.394       .  A
C530        H539   1.083       .  S
C531        C532   1.402       .  A
C531        S535   1.802       .  S
C532       C1229   1.409       .  A
C533       C1228   1.407   1_545  A
C533        C534   1.405       .  A
C533        H540   1.083       .  S
C534       C1225   1.412       .  A
C534        S536   1.807       .  S
S535        H538   1.406       .  S
S536        H537   1.407       .  S
C541        C542   1.404       .  A
C541        C546   1.433       .  A
C542        C543   1.403       .  A
C542        H551   1.082       .  S
C543        C544   1.412       .  A
C543        S547   1.807       .  S
C544       C1094   1.466       .  S
C544       C1241   1.388       .  A
C545       C1240   1.388   1_545  A
C545       C1242   1.398   1_545  A
C545        H552   1.083       .  S
C546       C1241   1.399       .  A
C546       S1244   1.810       .  S
S547        H550   1.407       .  S
S548       C1242   1.811   1_545  S
S548       H1245   1.406       .  S
H549       S1244   1.407       .  S
C553        C554   1.403       .  A
C553        C558   1.408       .  A
C554        C555   1.410       .  A
C554        H563   1.082       .  S
C555        C556   1.422       .  A
C555        S559   1.807       .  S
C556        C557   1.410       .  A
C557        C558   1.405       .  A
C557        H564   1.082       .  S
C558        S560   1.803       .  S
S559        H562   1.406       .  S
S560        H561   1.407       .  S
C565        C566   1.410       .  A
C565        C570   1.404       .  A
C566        C567   1.406       .  A
C566        H575   1.084       .  S
C567        C568   1.413       .  A
C567        S571   1.800       .  S
C568        C569   1.416       .  A
C569        C570   1.399       .  A
C569        H576   1.081   1_556  S
C570        S572   1.809   1_556  S
S571        H574   1.407       .  S
S572        H573   1.406       .  S
C577        C578   1.405       .  A
C577        C582   1.427       .  A
C578        C579   1.398       .  A
C578        H587   1.083       .  S
C579        C580   1.412       .  A
C579        S583   1.800   1_455  S
C580        C581   1.394       .  A
C581        C582   1.401       .  A
C581        H588   1.083       .  S
C582        S584   1.812       .  S
S583       H1978   1.406       .  S
S584        H585   1.407       .  S
H586       S1975   1.406       .  S
C589        C590   1.416       .  A
C589        C594   1.417       .  A
C590        C591   1.397   1_556  A
C590        H599   1.083       .  S
C591        S595   1.804       .  S
C592        C593   1.408       .  A
C593        H600   1.083       .  S
C601        C602   1.407       .  A
C601        C606   1.405       .  A
C602        C603   1.411       .  A
C602        H611   1.081       .  S
C603        C604   1.418       .  A
C603        S607   1.807       .  S
C604        C605   1.412       .  A
C605        C606   1.400       .  A
C605        H612   1.080       .  S
C606        S608   1.808       .  S
S607        H610   1.406       .  S
S608        H609   1.407       .  S
C613        C614   1.407       .  A
C613        C618   1.400       .  A
C614        C615   1.402       .  A
C614        H623   1.084       .  S
C615        C616   1.413       .  A
C616        C617   1.416       .  A
C617        C618   1.397       .  A
C617        H624   1.082       .  S
C618        S620   1.808       .  S
S619        H622   1.408       .  S
S620        H621   1.406       .  S
C625        C626   1.406       .  A
C625        C630   1.407       .  A
C626        C627   1.408       .  A
C626        H635   1.084       .  S
C627        C628   1.417       .  A
C627        S631   1.799       .  S
C628        C629   1.412       .  A
C629        C630   1.395       .  A
C629        H636   1.084       .  S
C630        S632   1.806       .  S
S631        H634   1.407       .  S
S632        H633   1.406       .  S
C637        C638   1.404       .  A
C637        C642   1.428       .  A
C638        C639   1.406       .  A
C638        H647   1.082       .  S
C639        C640   1.413       .  A
C639        S643   1.805       .  S
C640        C641   1.394       .  A
C641        C642   1.403       .  A
C641        H648   1.083       .  S
C642        S644   1.813       .  S
S643       H2038   1.407       .  S
S644        H645   1.407       .  S
H646       S2035   1.405       .  S
C649        C650   1.402       .  A
C649        C654   1.411       .  A
C650        C651   1.400       .  A
C650        H659   1.079       .  S
C651        C652   1.411       .  A
C651        S655   1.801       .  S
C652        C653   1.406       .  A
C653        C654   1.401       .  A
C653        H660   1.084       .  S
C654        S656   1.803       .  S
S656        H657   1.407       .  S
C661        C662   1.416       .  A
C661        C666   1.404       .  A
C662        C663   1.411       .  A
C662        H671   1.082       .  S
C663        C664   1.405       .  A
C663        S667   1.804       .  S
C664        C665   1.414       .  A
C665        C666   1.396       .  A
C665        H672   1.082       .  S
C666        S668   1.803       .  S
S667        H670   1.407       .  S
S668        H669   1.404       .  S
C673        C674   1.412       .  A
C673        C678   1.403       .  A
C674        C675   1.409       .  A
C674        H683   1.084       .  S
C675        C676   1.409       .  A
C675        S679   1.801       .  S
C676        C677   1.413       .  A
C677        C678   1.398       .  A
C677        H684   1.083       .  S
C678        S680   1.803       .  S
S679        H682   1.406       .  S
S680        H681   1.404       .  S
C685        C686   1.400       .  A
C685        C690   1.412       .  A
C686        C687   1.403       .  A
C686        H695   1.084       .  S
C687        C688   1.419       .  A
C687        S691   1.804       .  S
C688        C689   1.402       .  A
C689        C690   1.400       .  A
C689        H696   1.082       .  S
C690        S692   1.805       .  S
S691        H694   1.408       .  S
S692        H693   1.406       .  S
O697        C712   1.274       .  A
O697       Al705   1.973       .  S
C698        O708   1.275       .  A
C698        O699   1.257       .  A
C698        C973   1.478       .  S
O699       Al701   1.869       .  S
O700        C702   1.280       .  A
O700       Al701   1.977       .  S
Al701       O709   1.993       .  S
Al701       O711   1.878       .  S
Al701       O710   1.760       .  S
C702        O715   1.257       .  A
C702       C1009   1.483       .  S
O703        C713   1.279       .  A
O703       Al705   2.004       .  S
O704        C717   1.275       .  A
O704       Al714   1.973       .  S
Al705       O718   1.867       .  S
Al705       O715   1.863       .  S
Al705       O710   1.763       .  S
O706        C713   1.259       .  A
O706       Al714   1.869       .  S
O707        C716   1.253       .  A
O707       Al714   1.863       .  S
O708       Al714   1.985       .  S
O709        C716   1.280       .  A
O710       Al714   1.755       .  S
O711        C712   1.257       .  A
C712       C1033   1.473       .  S
C713       C1024   1.505       .  S
C716        C985   1.495       .  S
C717        O718   1.253       .  A
C717        C997   1.477       .  S
O719        C734   1.270       .  A
O719       Al727   1.940       .  S
C720        O730   1.275       .  A
C720        O721   1.260       .  A
C720        C940   1.481       .  S
O721       Al723   1.881       .  S
O722        C724   1.279       .  A
O722       Al723   1.991       .  S
Al723       O731   1.987       .  S
Al723       O733   1.868       .  S
Al723       O732   1.766       .  S
C724        O737   1.256       .  A
C724       C1348   1.483   1_554  S
O725        C735   1.277       .  A
O725       Al727   1.987       .  S
O726        C739   1.275       .  A
O726       Al736   2.006       .  S
Al727       O740   1.864       .  S
Al727       O737   1.872       .  S
Al727       O732   1.753       .  S
O728        C735   1.259       .  A
O728       Al736   1.875       .  S
O729        C738   1.256       .  A
O729       Al736   1.865       .  S
O730       Al736   1.986       .  S
O731        C738   1.281       .  A
O732       Al736   1.768       .  S
O733        C734   1.254       .  A
C734        C961   1.467       .  S
C735        C949   1.475       .  S
C738        C925   1.494       .  S
C739        O740   1.248       .  A
C739       C1012   1.488       .  S
O741       C1104   1.270       .  A
C742        O752   1.274       .  A
C742        O743   1.258       .  A
C742       C1021   1.484       .  S
O743       Al745   1.881       .  S
O744        C746   1.278       .  A
O744       Al745   1.974       .  S
Al745       O753   1.997       .  S
Al745      O1102   1.765       .  S
O747        C757   1.281       .  A
O747       Al749   2.000       .  S
O748        C761   1.271       .  A
O748       Al758   1.983       .  S
Al749       O754   1.754       .  S
O750        C757   1.262       .  A
O750       Al758   1.876       .  S
O751        C760   1.259       .  A
O751       Al758   1.862       .  S
O752      Al1106   1.987       .  S
O753       C1108   1.281       .  A
O754      Al1093   1.762   1_554  S
O754       Al758   1.769       .  S
O755        C756   1.254   1_545  A
C756       O1089   1.271       .  A
C756        C913   1.479       .  S
C757        C901   1.486       .  S
Al758      O1100   1.977   1_554  S
C760       O1101   1.279   1_554  A
C760        C964   1.491       .  S
O763       Al771   1.956       .  S
C764        O774   1.275       .  A
C764        O765   1.259       .  A
C764        C952   1.498       .  S
O765       Al767   1.874       .  S
O766        C768   1.272       .  A
O766       Al767   1.956       .  S
Al767       O775   1.962       .  S
Al767       O777   1.862       .  S
Al767       O776   1.762       .  S
C768        O781   1.252       .  A
C768        C880   1.465       .  S
O769        C779   1.280       .  A
O769       Al771   1.992       .  S
O770        C783   1.274       .  A
O770       Al780   1.989       .  S
Al771       O784   1.861       .  S
Al771       O781   1.850       .  S
Al771       O776   1.756       .  S
O772        C779   1.257       .  A
O772       Al780   1.853       .  S
O773        C782   1.260       .  A
O773       Al780   1.878       .  S
O774       Al780   1.982       .  S
O775        C782   1.276       .  A
O776       Al780   1.767       .  S
C778        C868   1.472       .  S
C779        C856   1.480       .  S
C782       C1036   1.476       .  S
C783        O784   1.246       .  A
C783        C889   1.495       .  S
O785        C800   1.278       .  A
O785      Al2185   1.981       .  S
C786        O796   1.276       .  A
C786        O787   1.259       .  A
C786        C853   1.489       .  S
O787       Al789   1.877       .  S
O788        C790   1.277       .  A
O788       Al789   1.984       .  S
Al789       O797   1.999       .  S
Al789      O2191   1.877       .  S
Al789       O798   1.765       .  S
C790        O803   1.257       .  A
C790        C832   1.475       .  S
O791        C801   1.280       .  A
O791       Al793   2.006       .  S
O792        C805   1.274       .  A
O792       Al802   1.970       .  S
Al793      O2177   1.986   1_455  S
Al793       O806   1.864       .  S
Al793       O803   1.870       .  S
Al793       O798   1.759       .  S
O794        C801   1.258       .  A
O794       Al802   1.873       .  S
O795        C804   1.253       .  A
O795       Al802   1.859       .  S
O796       Al802   1.981       .  S
O797        C804   1.279       .  A
O798       Al802   1.753       .  S
O799        C800   1.259       .  A
O799      Al2181   1.877       .  S
C800        C988   1.478       .  S
C801        C937   1.506       .  S
C804        C916   1.495       .  S
C805        O806   1.254       .  A
C805       C1189   1.482       .  S
O807        C822   1.272       .  A
O807      Al2207   1.950       .  S
C808        O818   1.273       .  A
C808        O809   1.263       .  A
C808        C904   1.501       .  S
O809       Al811   1.890       .  S
O810        C812   1.275       .  A
O810       Al811   1.974       .  S
Al811       O819   1.962       .  S
Al811       O821   1.873       .  S
Al811       O820   1.766       .  S
C812        O825   1.254       .  A
C812        C844   1.473       .  S
O813        C823   1.280       .  A
O813       Al815   2.001       .  S
O814        C827   1.274       .  A
O814       Al824   2.003       .  S
Al815      O2199   1.956       .  S
Al815       O828   1.867       .  S
Al815       O825   1.865       .  S
Al815       O820   1.757       .  S
O816        C823   1.259       .  A
O816       Al824   1.868       .  S
O817        C826   1.265       .  A
O817       Al824   1.882       .  S
O818       Al824   1.974       .  S
O819        C826   1.275       .  A
O820       Al824   1.765       .  S
O821       C2214   1.254       .  A
C822       O2213   1.255       .  A
C822        C928   1.473   1_655  S
C823        C976   1.501       .  S
C826        C865   1.491       .  S
C827        O828   1.249       .  A
C827        C829   1.503       .  S
C829        C830   1.417       .  A
C829        C834   1.417       .  A
C830       C2223   1.402       .  A
C830       H2231   1.083       .  S
C831       C2222   1.401   1_455  A
C831        C832   1.406       .  A
C831        S835   1.804       .  S
C832       C2225   1.407   1_455  A
C833       C2224   1.407       .  A
C833        C834   1.407       .  A
C833        H840   1.084       .  S
C834        S836   1.800       .  S
S835        H838   1.406       .  S
S836        H837   1.407       .  S
H839       C2222   1.084   1_455  S
C841       C1153   1.484   1_554  S
C841        C842   1.401       .  A
C841       C2238   1.420   1_455  A
C842        C843   1.402       .  A
C842        H851   1.083       .  S
C843       C2236   1.415   1_455  A
C843        S847   1.802       .  S
C844       C2235   1.414       .  A
C844        C845   1.399       .  A
C845        C846   1.401       .  A
C845        H852   1.084       .  S
C846       C2233   1.420       .  A
C846        S848   1.805       .  S
S847        H850   1.407       .  S
S848       H1197   1.408       .  S
H849       S1196   1.407       .  S
C853        C854   1.404       .  A
C853        C858   1.414       .  A
C854        C855   1.399       .  A
C854        H863   1.084       .  S
C855        C856   1.417       .  A
C855        S859   1.806       .  S
C856        C857   1.402       .  A
C857        C858   1.407       .  A
C857        H864   1.083       .  S
C858        S860   1.795       .  S
S859        H862   1.408       .  S
S860        H861   1.408       .  S
C865        C866   1.411       .  A
C865        C870   1.419       .  A
C866        C867   1.398       .  A
C866        H875   1.083       .  S
C867        C868   1.405       .  A
C867        S871   1.800       .  S
C868        C869   1.403       .  A
C869        C870   1.401       .  A
C869        H876   1.084       .  S
C870        S872   1.802       .  S
S871        H874   1.406       .  S
S872        H873   1.408       .  S
C877        C878   1.414   1_545  A
C878        C879   1.393       .  A
C878        H887   1.083       .  S
C879        C880   1.401       .  A
C879        S883   1.804       .  S
C881        C882   1.403       .  A
C881        H888   1.083       .  S
C882        S884   1.807       .  S
S883        H886   1.406       .  S
S884        H885   1.407       .  S
C889        C890   1.403       .  A
C889        C894   1.428   1_565  A
C890        C891   1.404       .  A
C890        H899   1.082       .  S
C891        C892   1.413       .  A
C891        S895   1.805       .  S
C893        H900   1.083       .  S
S895        H898   1.407       .  S
C901        C902   1.404       .  A
C901        C906   1.409       .  A
C902        C903   1.411       .  A
C902        H911   1.082       .  S
C903        C904   1.422       .  A
C903        S907   1.806       .  S
C904        C905   1.409       .  A
C905        C906   1.404       .  A
C905        H912   1.082       .  S
C906        S908   1.806   1_554  S
S907        H910   1.407       .  S
S908        H909   1.406       .  S
C913        C914   1.410       .  A
C913        C918   1.403       .  A
C914        C915   1.406       .  A
C914        H923   1.084       .  S
C915        C916   1.411       .  A
C915        S919   1.800       .  S
C916        C917   1.417       .  A
C917        C918   1.399       .  A
C917        H924   1.082       .  S
C918        S920   1.808       .  S
S919        H922   1.408       .  S
S920        H921   1.407       .  S
C925        C926   1.405       .  A
C925        C930   1.429       .  A
C926        C927   1.400       .  A
C926        H935   1.083       .  S
C927        C928   1.412       .  A
C927        S931   1.799   1_455  S
C928        C929   1.394       .  A
C929        C930   1.403       .  A
C929        H936   1.083       .  S
C930        S932   1.812       .  S
S931       H2326   1.406       .  S
S932        H933   1.407       .  S
H934       S2323   1.407       .  S
C937        C938   1.412       .  A
C937        C942   1.418       .  A
C938        C939   1.400       .  A
C938        H947   1.084       .  S
C939       C1288   1.411       .  A
C939        S943   1.806       .  S
C940       C1287   1.403       .  A
C940        C941   1.409       .  A
C941       C1290   1.417   1_554  A
C941        H948   1.083       .  S
C942       C1289   1.418       .  A
C942       S1292   1.804       .  S
S943       H1294   1.407       .  S
S944       C1290   1.804       .  S
S944       H1293   1.401   1_556  S
H945       S1292   1.401       .  S
H946       S1291   1.407       .  S
C949        C950   1.406       .  A
C949        C954   1.402       .  A
C950        C951   1.408       .  A
C950        H959   1.081       .  S
C951        C952   1.417       .  A
C951        S955   1.809       .  S
C952        C953   1.415       .  A
C953        C954   1.402       .  A
C953        H960   1.081       .  S
C954        S956   1.807       .  S
S955        H958   1.407       .  S
S956        H957   1.407       .  S
C961        C962   1.403       .  A
C961        C966   1.400       .  A
C962        C963   1.401       .  A
C962        H971   1.084   1_554  S
C963        C964   1.415       .  A
C963       S1315   1.801   1_554  S
C964        C965   1.416       .  A
C965        C966   1.399       .  A
C965        H972   1.082       .  S
C966        S968   1.808       .  S
S967       C1311   1.800       .  S
S967        H970   1.408       .  S
S968        H969   1.407       .  S
C973        C974   1.407       .  A
C973        C978   1.407       .  A
C974        C975   1.410       .  A
C974        H983   1.082       .  S
C975        C976   1.417       .  A
C975        S979   1.799       .  S
C976        C977   1.413       .  A
C977        C978   1.397       .  A
C977        H984   1.083       .  S
C978        S980   1.806       .  S
S979        H982   1.407       .  S
S980        H981   1.407       .  S
C985        C986   1.403       .  A
C985        C990   1.426       .  A
C986        C987   1.404       .  A
C986        H995   1.082       .  S
C987        C988   1.413       .  A
C987        S991   1.804       .  S
C988        C989   1.396       .  A
C989        C990   1.407       .  A
C989        H996   1.083       .  S
C990        S992   1.811       .  S
S991       H2386   1.407       .  S
S992        H993   1.407       .  S
H994       S2383   1.405   1_455  S
C997        C998   1.400       .  A
C997       C1002   1.418       .  A
C998        C999   1.399       .  A
C998       H1007   1.083       .  S
C999       C1000   1.411       .  A
C999       S1003   1.802       .  S
C1000      C1072   1.471       .  S
C1000      C1001   1.401       .  A
C1001      C1002   1.402       .  A
C1001      H1008   1.084       .  S
C1002      S1004   1.804       .  S
S1003      H1354   1.406       .  S
S1004      H1005   1.407       .  S
H1006      S1351   1.406   1_556  S
C1009      C1010   1.416       .  A
C1009      C1014   1.403       .  A
C1010      C1011   1.410       .  A
C1010      H1019   1.083       .  S
C1011      C1012   1.403       .  A
C1011      S1015   1.804       .  S
C1012      C1013   1.414       .  A
C1013      C1014   1.395       .  A
C1013      H1020   1.082       .  S
C1014      S1016   1.803       .  S
S1015      H1018   1.407       .  S
S1016      H1017   1.405       .  S
C1021      C1022   1.409       .  A
C1021      C1026   1.408       .  A
C1022      C1023   1.412       .  A
C1022      H1031   1.084       .  S
C1023      C1024   1.418       .  A
C1023      S1027   1.800       .  S
C1024      C1025   1.413       .  A
C1025      C1026   1.398       .  A
C1025      H1032   1.083       .  S
C1026      S1028   1.805       .  S
S1027      H1030   1.407       .  S
S1028      H1029   1.402       .  S
C1033      C1034   1.402       .  A
C1033      C1038   1.411       .  A
C1034      C1035   1.402       .  A
C1034      H1043   1.084       .  S
C1035      C1036   1.414       .  A
C1035      S1039   1.803       .  S
C1036      C1037   1.403       .  A
C1037      C1038   1.399       .  A
C1037      H1044   1.083       .  S
C1038      S1040   1.804       .  S
S1039      H1042   1.408       .  S
S1040      H1041   1.407       .  S
O1045      C1060   1.274       .  A
O1045     Al1053   1.970       .  S
C1046      O1056   1.275       .  A
C1046      O1047   1.259       .  A
C1046      C1321   1.483       .  S
O1047     Al1049   1.877       .  S
O1048      C1050   1.280       .  A
O1048     Al1049   1.985       .  S
Al1049     O1057   2.001       .  S
Al1049     O1059   1.882       .  S
Al1049     O1058   1.762       .  S
C1050      O1063   1.257       .  A
C1050      C1357   1.486       .  S
O1051      C1061   1.279       .  A
O1051     Al1053   1.998       .  S
O1052      C1065   1.276       .  A
O1052     Al1062   1.984       .  S
Al1053     O1066   1.871       .  S
Al1053     O1063   1.865       .  S
Al1053     O1058   1.765       .  S
O1054      C1061   1.259       .  A
O1054     Al1062   1.868       .  S
O1055      C1064   1.254       .  A
O1055     Al1062   1.865       .  S
O1056     Al1062   1.988       .  S
O1057      C1064   1.281       .  A
O1058     Al1062   1.759       .  S
O1059      C1060   1.258       .  A
C1060      C1381   1.475       .  S
C1061      C1372   1.500       .  S
C1064      C1333   1.501       .  S
C1065      O1066   1.253       .  A
C1065      C1345   1.488       .  S
O1067      C1082   1.270       .  A
O1067     Al1075   1.941       .  S
C1068      O1078   1.279       .  A
C1068      O1069   1.257       .  A
C1068      C1288   1.489       .  S
O1069     Al1071   1.872       .  S
O1070      C1072   1.277       .  A
O1070     Al1071   1.978       .  S
Al1071     O1079   1.980       .  S
Al1071     O1081   1.874       .  S
Al1071     O1080   1.765       .  S
C1072      O1085   1.256       .  A
O1073      C1083   1.275       .  A
O1073     Al1075   1.982       .  S
O1074      C1087   1.279       .  A
O1074     Al1084   2.020       .  S
Al1075     O1088   1.865       .  S
Al1075     O1085   1.865       .  S
Al1075     O1080   1.751       .  S
O1076      C1083   1.259       .  A
O1076     Al1084   1.879       .  S
O1077      C1086   1.255       .  A
O1077     Al1084   1.859       .  S
O1078     Al1084   2.001       .  S
O1079      C1086   1.279       .  A
O1080     Al1084   1.764       .  S
O1081      C1082   1.255       .  A
C1082      C1309   1.471       .  S
C1083      C1297   1.474       .  S
C1086      C1273   1.490       .  S
C1087      O1088   1.249       .  A
C1087      C1360   1.499       .  S
C1090      O1100   1.273       .  A
C1090      O1091   1.257       .  A
C1090      C1369   1.480       .  S
O1091     Al1093   1.877       .  S
O1092      C1094   1.276       .  A
O1092     Al1093   1.964       .  S
Al1093     O1101   1.980       .  S
O1095      C1105   1.283       .  A
O1095     Al1097   2.009       .  S
O1096      C1109   1.271       .  A
O1096     Al1106   1.983       .  S
Al1097     O1102   1.755       .  S
O1098      C1105   1.263       .  A
O1098     Al1106   1.878       .  S
O1099      C1108   1.257       .  A
O1099     Al1106   1.859       .  S
O1102     Al1106   1.766       .  S
O1103      C1104   1.253   1_545  A
C1104      C1261   1.476       .  S
C1105      C1249   1.488       .  S
C1108      C1312   1.492       .  S
O1111     Al1119   1.956       .  S
C1112      O1122   1.274       .  A
C1112      O1113   1.257       .  A
C1112      C1300   1.498       .  S
O1113     Al1115   1.872       .  S
O1114      C1116   1.273       .  A
O1114     Al1115   1.962       .  S
Al1115     O1123   1.972       .  S
Al1115     O1125   1.866       .  S
Al1115     O1124   1.759       .  S
C1116      O1129   1.253       .  A
C1116      C1228   1.467       .  S
O1117      C1127   1.280       .  A
O1117     Al1119   1.993       .  S
O1118      C1131   1.275       .  A
O1118     Al1128   1.996       .  S
Al1119     O1132   1.863       .  S
Al1119     O1129   1.853       .  S
Al1119     O1124   1.751       .  S
O1120      C1127   1.260       .  A
O1120     Al1128   1.864       .  S
O1121      C1130   1.260       .  A
O1121     Al1128   1.875       .  S
O1122     Al1128   1.984       .  S
O1123      C1130   1.279       .  A
O1124     Al1128   1.772       .  S
C1126      C1216   1.470       .  S
C1127      C1204   1.478       .  S
C1130      C1384   1.479       .  S
C1131      O1132   1.244       .  A
C1131      C1237   1.494       .  S
O1133      C1148   1.277       .  A
O1133     Al2533   1.976       .  S
C1134      O1144   1.274       .  A
C1134      O1135   1.261       .  A
C1134      C1201   1.495       .  S
O1135     Al1137   1.879       .  S
O1136      C1138   1.277       .  A
O1136     Al1137   1.978       .  S
Al1137     O1145   1.997       .  S
Al1137     O2539   1.869       .  S
Al1137     O1146   1.764       .  S
C1138      O1151   1.257       .  A
C1138      C1180   1.477       .  S
O1139      C1149   1.284       .  A
O1139     Al1141   2.021       .  S
O1140      C1153   1.273       .  A
O1140     Al1150   1.978       .  S
Al1141     O2525   1.972   1_455  S
Al1141     O1154   1.865       .  S
Al1141     O1151   1.866       .  S
Al1141     O1146   1.758       .  S
O1142      C1149   1.255       .  A
O1142     Al1150   1.855       .  S
O1143      C1152   1.256       .  A
O1143     Al1150   1.868       .  S
O1144     Al1150   1.977       .  S
O1145      C1152   1.279       .  A
O1146     Al1150   1.754       .  S
O1147      C1148   1.259       .  A
O1147     Al2529   1.879       .  S
C1148      C1336   1.481       .  S
C1149      C1285   1.506       .  S
C1152      C1264   1.498       .  S
C1153      O1154   1.249       .  A
O1155      C1170   1.270       .  A
O1155     Al2555   1.943       .  S
C1156      O1166   1.275       .  A
C1156      O1157   1.263       .  A
C1156      C1252   1.505       .  S
O1157     Al1159   1.888       .  S
O1158      C1160   1.275       .  A
O1158     Al1159   1.973       .  S
Al1159     O1167   1.973       .  S
Al1159     O1169   1.874       .  S
Al1159     O1168   1.767       .  S
C1160      O1173   1.256       .  A
C1160      C1192   1.472       .  S
O1161      C1171   1.280       .  A
O1161     Al1163   2.004       .  S
O1162      C1175   1.274       .  A
O1162     Al1172   1.995       .  S
Al1163     O2547   1.953       .  S
Al1163     O1176   1.867       .  S
Al1163     O1173   1.868       .  S
Al1163     O1168   1.756       .  S
O1164      C1171   1.259       .  A
O1164     Al1172   1.865       .  S
O1165      C1174   1.260       .  A
O1165     Al1172   1.871       .  S
O1166     Al1172   1.983       .  S
O1167      C1174   1.276       .  A
O1168     Al1172   1.760       .  S
O1169      C2562   1.256       .  A
C1170      O2561   1.254       .  A
C1170      C1276   1.471   1_655  S
C1171      C1324   1.502       .  S
C1174      C1213   1.490       .  S
C1175      O1176   1.250       .  A
C1175      C1177   1.500       .  S
C1177      C1178   1.417       .  A
C1177      C1182   1.416       .  A
C1178      C2571   1.401       .  A
C1178      H2579   1.084       .  S
C1179      C2570   1.399       .  A
C1179      C1180   1.401       .  A
C1179      S1183   1.804       .  S
C1180      C2573   1.410   1_455  A
C1181      C2572   1.406       .  A
C1181      C1182   1.405       .  A
C1181      H1188   1.084       .  S
C1182      S1184   1.801       .  S
S1183      H1186   1.406       .  S
S1184      H1185   1.407       .  S
H1187      C2570   1.083       .  S
C1189      C1190   1.402       .  A
C1189      C2586   1.419   1_455  A
C1190      C1191   1.402       .  A
C1190      H1199   1.082       .  S
C1191      C2584   1.415   1_455  A
C1191      S1195   1.805       .  S
C1192      C2583   1.414       .  A
C1192      C1193   1.399       .  A
C1193      C1194   1.401       .  A
C1193      H1200   1.084       .  S
C1194      C2581   1.419       .  A
C1194      S1196   1.804       .  S
S1195      H1198   1.407       .  S
C1201      C1202   1.409       .  A
C1201      C1206   1.419       .  A
C1202      C1203   1.397       .  A
C1202      H1211   1.084       .  S
C1203      C1204   1.411       .  A
C1203      S1207   1.806       .  S
C1204      C1205   1.404       .  A
C1205      C1206   1.409       .  A
C1205      H1212   1.083       .  S
C1206      S1208   1.804       .  S
S1207      H1210   1.407       .  S
S1208      H1209   1.407       .  S
C1213      C1214   1.413       .  A
C1213      C1218   1.416       .  A
C1214      C1215   1.397       .  A
C1214      H1223   1.084       .  S
C1215      C1216   1.404       .  A
C1215      S1219   1.801       .  S
C1216      C1217   1.404       .  A
C1217      C1218   1.401       .  A
C1217      H1224   1.084       .  S
C1218      S1220   1.801       .  S
S1219      H1222   1.405       .  S
S1220      H1221   1.408       .  S
C1225      C1226   1.417   1_545  A
C1226      C1227   1.395       .  A
C1226      H1235   1.083       .  S
C1227      C1228   1.400       .  A
C1227      S1231   1.805       .  S
C1229      C1230   1.405       .  A
C1229      H1236   1.083       .  S
C1230      S1232   1.806       .  S
S1231      H1234   1.406       .  S
S1232      H1233   1.407       .  S
C1237      C1238   1.403       .  A
C1237      C1242   1.433       .  A
C1238      C1239   1.404       .  A
C1238      H1247   1.083       .  S
C1239      C1240   1.416       .  A
C1239      S1243   1.808       .  S
C1241      H1248   1.083       .  S
S1243      H1246   1.407       .  S
C1249      C1250   1.406       .  A
C1249      C1254   1.408       .  A
C1250      C1251   1.414       .  A
C1250      H1259   1.082       .  S
C1251      C1252   1.422       .  A
C1251      S1255   1.808       .  S
C1252      C1253   1.410       .  A
C1253      C1254   1.404       .  A
C1253      H1260   1.082       .  S
C1254      S1256   1.804       .  S
S1255      H1258   1.406       .  S
S1256      H1257   1.407       .  S
C1261      C1262   1.407       .  A
C1261      C1266   1.401       .  A
C1262      C1263   1.404       .  A
C1262      H1271   1.084       .  S
C1263      C1264   1.415       .  A
C1263      S1267   1.800       .  S
C1264      C1265   1.417       .  A
C1265      C1266   1.401       .  A
C1265      H1272   1.082       .  S
C1266      S1268   1.807   1_556  S
S1267      H1270   1.407       .  S
S1268      H1269   1.407       .  S
C1273      C1274   1.404       .  A
C1273      C1278   1.426       .  A
C1274      C1275   1.403       .  A
C1274      H1283   1.082       .  S
C1275      C1276   1.412       .  A
C1275      S1279   1.807   1_455  S
C1276      C1277   1.394       .  A
C1277      C1278   1.401       .  A
C1277      H1284   1.083       .  S
C1278      S1280   1.813       .  S
S1279      H2674   1.407   1_655  S
S1280      H1281   1.406       .  S
H1282      S2671   1.407       .  S
C1285      C1286   1.417       .  A
C1285      C1290   1.415       .  A
C1286      C1287   1.397   1_556  A
C1286      H1295   1.083       .  S
C1287      S1291   1.805       .  S
C1288      C1289   1.408       .  A
C1289      H1296   1.083       .  S
C1297      C1298   1.404       .  A
C1297      C1302   1.401       .  A
C1298      C1299   1.403       .  A
C1298      H1307   1.082       .  S
C1299      C1300   1.416       .  A
C1299      S1303   1.801       .  S
C1300      C1301   1.417       .  A
C1301      C1302   1.403       .  A
C1301      H1308   1.082       .  S
C1302      S1304   1.807       .  S
S1303      H1306   1.400       .  S
S1304      H1305   1.407       .  S
C1309      C1310   1.407       .  A
C1309      C1314   1.401       .  A
C1310      C1311   1.404       .  A
C1310      H1319   1.084       .  S
C1311      C1312   1.412       .  A
C1312      C1313   1.417       .  A
C1313      C1314   1.397       .  A
C1313      H1320   1.081       .  S
C1314      S1316   1.809       .  S
S1315      H1318   1.408       .  S
S1316      H1317   1.407       .  S
C1321      C1322   1.408       .  A
C1321      C1326   1.408       .  A
C1322      C1323   1.412       .  A
C1322      H1331   1.082       .  S
C1323      C1324   1.419       .  A
C1323      S1327   1.798       .  S
C1324      C1325   1.412       .  A
C1325      C1326   1.396       .  A
C1325      H1332   1.083       .  S
C1326      S1328   1.804       .  S
S1327      H1330   1.407       .  S
S1328      H1329   1.407       .  S
C1333      C1334   1.405       .  A
C1333      C1338   1.428       .  A
C1334      C1335   1.408       .  A
C1334      H1343   1.083       .  S
C1335      C1336   1.413       .  A
C1335      S1339   1.805       .  S
C1336      C1337   1.395       .  A
C1337      C1338   1.407       .  A
C1337      H1344   1.083       .  S
C1338      S1340   1.812       .  S
S1339      H2734   1.407       .  S
S1340      H1341   1.407       .  S
H1342      S2731   1.406   1_455  S
C1345      C1346   1.401       .  A
C1345      C1350   1.420       .  A
C1346      C1347   1.404       .  A
C1346      H1355   1.083       .  S
C1347      C1348   1.416       .  A
C1347      S1351   1.802   1_556  S
C1348      C1349   1.401       .  A
C1349      C1350   1.405       .  A
C1349      H1356   1.084       .  S
C1350      S1352   1.804       .  S
S1352      H1353   1.408       .  S
C1357      C1358   1.415       .  A
C1357      C1362   1.403       .  A
C1358      C1359   1.413       .  A
C1358      H1367   1.083       .  S
C1359      C1360   1.408       .  A
C1359      S1363   1.805       .  S
C1360      C1361   1.417       .  A
C1361      C1362   1.397       .  A
C1361      H1368   1.083       .  S
C1362      S1364   1.803       .  S
S1363      H1366   1.407       .  S
S1364      H1365   1.401       .  S
C1369      C1370   1.407       .  A
C1369      C1374   1.410       .  A
C1370      C1371   1.409       .  A
C1370      H1379   1.084       .  S
C1371      C1372   1.417       .  A
C1371      S1375   1.800       .  S
C1372      C1373   1.412       .  A
C1373      C1374   1.398       .  A
C1373      H1380   1.084       .  S
C1374      S1376   1.806       .  S
S1375      H1378   1.407       .  S
S1376      H1377   1.403       .  S
C1381      C1382   1.401       .  A
C1381      C1386   1.412       .  A
C1382      C1383   1.403       .  A
C1382      H1391   1.084       .  S
C1383      C1384   1.417       .  A
C1383      S1387   1.803       .  S
C1384      C1385   1.401       .  A
C1385      C1386   1.400       .  A
C1385      H1392   1.083       .  S
C1386      S1388   1.803       .  S
S1387      H1390   1.407       .  S
S1388      H1389   1.407       .  S
O1393      C1408   1.274       .  A
O1393     Al1401   1.965       .  S
C1394      O1404   1.273       .  A
C1394      O1395   1.258       .  A
C1394      C1669   1.478       .  S
O1395     Al1397   1.874       .  S
O1396      C1398   1.276       .  A
O1396     Al1397   1.967       .  S
Al1397     O1405   1.982       .  S
Al1397     O1407   1.881       .  S
Al1397     O1406   1.764       .  S
C1398      O1411   1.256       .  A
C1398      C1705   1.476       .  S
O1399      C1409   1.277       .  A
O1399     Al1401   1.994       .  S
O1400      C1413   1.275       .  A
O1400     Al1410   1.972       .  S
Al1401     O1414   1.866       .  S
Al1401     O1411   1.862       .  S
Al1401     O1406   1.764       .  S
O1402      C1409   1.259       .  A
O1402     Al1410   1.868       .  S
O1403      C1412   1.255       .  A
O1403     Al1410   1.867       .  S
O1404     Al1410   1.978       .  S
O1405      C1412   1.278       .  A
O1406     Al1410   1.757       .  S
O1407      C1408   1.259       .  A
C1408      C1729   1.471       .  S
C1409      C1720   1.499       .  S
C1412      C1681   1.495       .  S
C1413      O1414   1.253       .  A
C1413      C1693   1.483       .  S
O1415      C1430   1.271       .  A
O1415     Al1423   1.940       .  S
C1416      O1426   1.278       .  A
C1416      O1417   1.259       .  A
C1416      C1636   1.478       .  S
O1417     Al1419   1.867       .  S
O1418      C1420   1.279       .  A
O1418     Al1419   1.990       .  S
Al1419     O1427   1.987       .  S
Al1419     O1429   1.874       .  S
Al1419     O1428   1.766       .  S
C1420      O1433   1.256       .  A
C1420      C2044   1.476   1_554  S
O1421      C1431   1.274       .  A
O1421     Al1423   1.979       .  S
O1422      C1435   1.276       .  A
O1422     Al1432   1.998       .  S
Al1423     O1436   1.857       .  S
Al1423     O1433   1.866       .  S
Al1423     O1428   1.748       .  S
O1424      C1431   1.259       .  A
O1424     Al1432   1.881       .  S
O1425      C1434   1.252       .  A
O1425     Al1432   1.862       .  S
O1426     Al1432   1.992       .  S
O1427      C1434   1.279       .  A
O1428     Al1432   1.761       .  S
O1429      C1430   1.257       .  A
C1430      C1657   1.469       .  S
C1431      C1645   1.474       .  S
C1434      C1621   1.493       .  S
C1435      O1436   1.248       .  A
C1435      C1708   1.484       .  S
O1437      C1800   1.270       .  A
O1437     Al2141   1.957   1_556  S
C1438      O1448   1.276       .  A
C1438      O1439   1.258       .  A
C1438      C1717   1.482       .  S
O1439     Al1441   1.872       .  S
O1440      C1442   1.280       .  A
O1440     Al1441   1.987       .  S
Al1441     O1449   1.996       .  S
Al1441     O2147   1.869       .  S
Al1441     O1798   1.762       .  S
C1442      O2151   1.254       .  A
C1442      C2284   1.476   1_545  S
O1443      C1453   1.281       .  A
O1443     Al1445   2.001       .  S
O1444      C1457   1.272       .  A
O1444     Al1454   1.987       .  S
Al1445     O2133   1.956   1_544  S
Al1445     O2154   1.870       .  S
Al1445     O2499   1.846   1_554  S
Al1445     O1450   1.755       .  S
O1446      C1453   1.261       .  A
O1446     Al1454   1.878       .  S
O1447      C1456   1.259       .  A
O1447     Al1454   1.865       .  S
O1448     Al1802   1.990       .  S
O1449      C1804   1.281       .  A
O1450     Al1789   1.768   1_554  S
O1450     Al1454   1.767       .  S
O1451      C1452   1.254       .  A
O1451     Al2137   1.868       .  S
C1452      O1785   1.272       .  A
C1452      C1609   1.475       .  S
C1453      C1597   1.483       .  S
Al1454     O1796   1.973   1_554  S
O1455      C2138   1.254       .  A
O1455     Al2489   1.849       .  S
C1456      O1797   1.279   1_554  A
C1456      C1660   1.487       .  S
C1457      O2154   1.249       .  A
C1457      C2269   1.486       .  S
O1458      C2153   1.249       .  A
O1458     Al2141   1.867       .  S
O1459      C2170   1.270       .  A
O1459     Al1467   1.953       .  S
C1460      O1470   1.274       .  A
C1460      O1461   1.258       .  A
C1460      C1648   1.497       .  S
O1461     Al1463   1.873       .  S
O1462      C1464   1.273       .  A
O1462     Al1463   1.957       .  S
Al1463     O1471   1.962       .  S
Al1463     O1473   1.871       .  S
Al1463     O1472   1.759       .  S
C1464      O1477   1.255       .  A
C1464      C1576   1.467       .  S
O1465      C1475   1.279       .  A
O1465     Al1467   1.990       .  S
O1466      C1479   1.275       .  A
O1466     Al1476   1.995       .  S
Al1467     O1480   1.860       .  S
Al1467     O1477   1.855       .  S
Al1467     O1472   1.756       .  S
O1468      C1475   1.260       .  A
O1468     Al1476   1.869       .  S
O1469      C1478   1.261       .  A
O1469     Al1476   1.876       .  S
O1470     Al1476   1.979       .  S
O1471      C1478   1.276       .  A
O1472     Al1476   1.772       .  S
O1473      C2170   1.255       .  A
C1474      O2155   1.271       .  A
C1474      O2169   1.254       .  A
C1474      C1564   1.468   1_565  S
C1475      C1552   1.481       .  S
C1478      C1732   1.480       .  S
C1479      O1480   1.245       .  A
C1479      C1585   1.493       .  S
O1481      C1496   1.274       .  A
C1482      O1492   1.275       .  A
C1482      O1483   1.260       .  A
C1482      C1549   1.492       .  S
O1483     Al1485   1.879       .  S
O1484      C1486   1.275       .  A
O1484     Al1485   1.973       .  S
Al1485     O1493   1.989       .  S
Al1485     O1494   1.766       .  S
C1486      O1499   1.258       .  A
C1486      C1528   1.471       .  S
O1487      C1497   1.282       .  A
O1487     Al1489   2.015       .  S
O1488      C1501   1.274       .  A
O1488     Al1498   1.980       .  S
Al1489     O1502   1.862       .  S
Al1489     O1499   1.869       .  S
Al1489     O1494   1.758       .  S
O1490      C1497   1.256       .  A
O1490     Al1498   1.865       .  S
O1491      C1500   1.256       .  A
O1491     Al1498   1.867       .  S
O1492     Al1498   1.977       .  S
O1493      C1500   1.278       .  A
O1494     Al1498   1.756       .  S
O1495      C1496   1.259   1_455  A
C1496      C1684   1.476       .  S
C1497      C1633   1.507       .  S
C1500      C1612   1.496       .  S
C1501      O1502   1.251       .  A
C1501      C1885   1.483       .  S
O1503      C1518   1.272       .  A
C1504      O1514   1.275       .  A
C1504      O1505   1.265       .  A
C1504      C1600   1.507       .  S
O1505     Al1507   1.895       .  S
O1506      C1508   1.277       .  A
O1506     Al1507   1.979       .  S
Al1507     O1515   1.968       .  S
Al1507     O1517   1.874       .  S
Al1507     O1516   1.765       .  S
C1508      O1521   1.257       .  A
C1508      C1540   1.479       .  S
O1509      C1519   1.280       .  A
O1509     Al1511   2.006       .  S
O1510      C1523   1.276       .  A
O1510     Al1520   2.013       .  S
Al1511     O1524   1.867       .  S
Al1511     O1521   1.874       .  S
Al1511     O1516   1.755       .  S
O1512      C1519   1.257       .  A
O1512     Al1520   1.858       .  S
O1513      C1522   1.263       .  A
O1513     Al1520   1.877       .  S
O1514     Al1520   1.978       .  S
O1515      C1522   1.276       .  A
O1516     Al1520   1.763       .  S
C1518      C1624   1.473       .  S
C1519      C1672   1.498       .  S
C1522      C1561   1.489       .  S
C1523      O1524   1.248       .  A
C1523      C1525   1.504       .  S
C1525      C1526   1.420   1_655  A
C1525      C1530   1.414       .  A
C1527      C1528   1.402       .  A
C1527      S1531   1.805       .  S
C1529      C1530   1.409       .  A
C1529      H1536   1.084       .  S
C1530      S1532   1.800       .  S
S1531      H1534   1.406       .  S
S1532      H1533   1.407       .  S
C1537      C1849   1.482   1_554  S
C1537      C1538   1.400       .  A
C1538      C1539   1.399       .  A
C1538      H1547   1.082       .  S
C1539      S1543   1.801       .  S
C1540      C1541   1.402       .  A
C1541      C1542   1.404       .  A
C1541      H1548   1.084       .  S
C1542      S1544   1.804       .  S
S1543      H1546   1.407       .  S
S1544      H1893   1.407       .  S
H1545      S1892   1.408       .  S
C1549      C1550   1.407       .  A
C1549      C1554   1.416       .  A
C1550      C1551   1.399       .  A
C1550      H1559   1.084       .  S
C1551      C1552   1.413       .  A
C1551      S1555   1.805       .  S
C1552      C1553   1.404       .  A
C1553      C1554   1.408       .  A
C1553      H1560   1.083       .  S
C1554      S1556   1.800       .  S
S1555      H1558   1.407       .  S
S1556      H1557   1.407       .  S
C1561      C1562   1.411       .  A
C1561      C1566   1.418       .  A
C1562      C1563   1.399       .  A
C1562      H1571   1.084       .  S
C1563      C1564   1.406       .  A
C1563      S1567   1.801       .  S
C1564      C1565   1.401       .  A
C1565      C1566   1.399       .  A
C1565      H1572   1.084       .  S
C1566      S1568   1.801       .  S
S1567      H1570   1.405   1_545  S
S1568      H1569   1.407       .  S
C1573      C2153   1.487       .  S
C1573      C1574   1.415       .  A
C1573      C2274   1.409       .  A
C1574      C1575   1.393       .  A
C1574      H1583   1.083       .  S
C1575      C1576   1.401       .  A
C1575      S1579   1.804       .  S
C1576      C2273   1.408       .  A
C1577      C2272   1.411       .  A
C1577      C1578   1.406   1_565  A
C1577      H1584   1.083   1_565  S
C1578      C2269   1.407       .  A
C1578      S1580   1.805       .  S
S1579      H1582   1.406       .  S
S1580      H1581   1.407       .  S
C1585      C1586   1.403       .  A
C1585      C1590   1.431       .  A
C1586      C1587   1.404       .  A
C1586      H1595   1.082       .  S
C1587      C1588   1.414       .  A
C1587      S1591   1.807       .  S
C1588      C2138   1.467       .  S
C1588      C2285   1.388       .  A
C1589      C2284   1.393   1_545  A
C1589      C2286   1.399   1_545  A
C1589      H1596   1.084       .  S
C1590      C2285   1.398       .  A
C1590      S2288   1.809       .  S
S1591      H1594   1.406       .  S
S1592      C2286   1.799   1_545  S
S1592      H2289   1.407       .  S
H1593      S2288   1.407       .  S
C1597      C1598   1.403       .  A
C1597      C1602   1.407       .  A
C1598      C1599   1.410       .  A
C1598      H1607   1.082       .  S
C1599      C1600   1.423       .  A
C1599      S1603   1.808       .  S
C1600      C1601   1.413       .  A
C1601      C1602   1.407       .  A
C1601      H1608   1.082       .  S
C1602      S1604   1.807   1_554  S
S1603      H1606   1.407       .  S
S1604      H1605   1.406       .  S
C1609      C1610   1.406       .  A
C1609      C1614   1.401       .  A
C1610      C1611   1.403       .  A
C1610      H1619   1.084       .  S
C1611      C1612   1.414       .  A
C1611      S1615   1.800       .  S
C1612      C1613   1.417       .  A
C1613      C1614   1.402       .  A
C1613      H1620   1.082       .  S
C1614      S1616   1.807       .  S
S1615      H1618   1.408       .  S
S1616      H1617   1.407       .  S
C1621      C1622   1.403       .  A
C1621      C1626   1.430       .  A
C1622      C1623   1.403       .  A
C1622      H1631   1.082       .  S
C1623      C1624   1.413       .  A
C1623      S1627   1.807       .  S
C1624      C1625   1.393       .  A
C1625      C1626   1.402       .  A
C1625      H1632   1.083       .  S
C1626      S1628   1.813       .  S
S1628      H1629   1.407       .  S
C1633      C1634   1.414       .  A
C1633      C1638   1.416       .  A
C1634      C1635   1.400       .  A
C1634      H1643   1.084       .  S
C1635      C1984   1.409       .  A
C1635      S1639   1.806       .  S
C1636      C1983   1.405   1_554  A
C1636      C1637   1.409       .  A
C1637      C1986   1.417   1_554  A
C1637      H1644   1.083       .  S
C1638      C1985   1.418       .  A
C1638      S1988   1.804       .  S
S1639      H1990   1.405       .  S
S1640      C1986   1.805       .  S
S1640      H1989   1.402   1_556  S
H1641      S1988   1.402       .  S
H1642      S1987   1.407   1_554  S
C1645      C1646   1.405       .  A
C1645      C1650   1.400       .  A
C1646      C1647   1.402       .  A
C1646      H1655   1.081       .  S
C1647      C1648   1.416       .  A
C1647      S1651   1.800       .  S
C1648      C1649   1.417       .  A
C1649      C1650   1.404       .  A
C1649      H1656   1.082       .  S
C1650      S1652   1.805       .  S
S1651      H1654   1.406       .  S
S1652      H1653   1.407       .  S
C1657      C1658   1.406       .  A
C1657      C1662   1.402       .  A
C1658      C1659   1.402       .  A
C1658      H1667   1.084       .  S
C1659      C1660   1.412       .  A
C1659      S2011   1.801   1_554  S
C1660      C1661   1.414       .  A
C1661      C1662   1.395       .  A
C1661      H1668   1.082       .  S
C1662      S1664   1.809       .  S
S1663      C2007   1.800       .  S
S1663      H1666   1.408       .  S
S1664      H1665   1.406       .  S
C1669      C1670   1.406       .  A
C1669      C1674   1.407       .  A
C1670      C1671   1.410       .  A
C1670      H1679   1.083       .  S
C1671      C1672   1.418       .  A
C1671      S1675   1.797       .  S
C1672      C1673   1.412       .  A
C1673      C1674   1.395       .  A
C1673      H1680   1.084       .  S
C1674      S1676   1.805       .  S
S1675      H1678   1.407       .  S
S1676      H1677   1.407       .  S
C1681      C1682   1.406       .  A
C1681      C1686   1.427       .  A
C1682      C1683   1.401       .  A
C1682      H1691   1.083       .  S
C1683      C1684   1.412       .  A
C1683      S1687   1.799       .  S
C1684      C1685   1.396       .  A
C1685      C1686   1.405       .  A
C1685      H1692   1.082       .  S
C1686      S1688   1.811       .  S
S1688      H1689   1.407       .  S
C1693      C1694   1.402       .  A
C1693      C1698   1.420       .  A
C1694      C1695   1.401       .  A
C1694      H1703   1.083       .  S
C1695      C1696   1.412       .  A
C1695      S1699   1.805       .  S
C1696      C1768   1.472       .  S
C1696      C1697   1.400       .  A
C1697      C1698   1.403       .  A
C1697      H1704   1.084       .  S
C1698      S1700   1.805       .  S
S1699      H2050   1.406       .  S
S1700      H1701   1.407       .  S
H1702      S2047   1.407       .  S
C1705      C1706   1.414       .  A
C1705      C1710   1.403       .  A
C1706      C1707   1.406       .  A
C1706      H1715   1.083       .  S
C1707      C1708   1.403       .  A
C1707      S1711   1.805       .  S
C1708      C1709   1.415       .  A
C1709      C1710   1.394       .  A
C1709      H1716   1.083       .  S
C1710      S1712   1.803       .  S
S1711      H1714   1.407       .  S
S1712      H1713   1.403       .  S
C1717      C1718   1.409       .  A
C1717      C1722   1.410       .  A
C1718      C1719   1.411       .  A
C1718      H1727   1.084       .  S
C1719      C1720   1.418       .  A
C1719      S1723   1.800       .  S
C1720      C1721   1.410       .  A
C1721      C1722   1.396       .  A
C1721      H1728   1.084       .  S
C1722      S1724   1.806       .  S
S1723      H1726   1.407       .  S
S1724      H1725   1.404       .  S
C1729      C1730   1.399       .  A
C1729      C1734   1.411       .  A
C1730      C1731   1.402       .  A
C1730      H1739   1.084       .  S
C1731      C1732   1.417       .  A
C1731      S1735   1.803       .  S
C1732      C1733   1.404       .  A
C1733      C1734   1.400       .  A
C1733      H1740   1.083       .  S
C1734      S1736   1.805       .  S
S1735      H1738   1.408       .  S
S1736      H1737   1.407       .  S
O1741      C1756   1.273       .  A
O1741     Al1749   1.963       .  S
C1742      O1752   1.273       .  A
C1742      O1743   1.258       .  A
C1742      C2017   1.472       .  S
O1743     Al1745   1.871       .  S
O1744      C1746   1.278       .  A
O1744     Al1745   1.979       .  S
Al1745     O1753   1.990       .  S
Al1745     O1755   1.865       .  S
Al1745     O1754   1.761       .  S
C1746      O1759   1.259       .  A
C1746      C2053   1.492       .  S
O1747      C1757   1.280       .  A
O1747     Al1749   2.000       .  S
O1748      C1761   1.273       .  A
O1748     Al1758   1.973       .  S
Al1749     O1762   1.872       .  S
Al1749     O1759   1.875       .  S
Al1749     O1754   1.763       .  S
O1750      C1757   1.259       .  A
O1750     Al1758   1.872       .  S
O1751      C1760   1.255       .  A
O1751     Al1758   1.867       .  S
O1752     Al1758   1.979       .  S
O1753      C1760   1.280       .  A
O1754     Al1758   1.764       .  S
O1755      C1756   1.255       .  A
C1756      C2077   1.465       .  S
C1757      C2068   1.487       .  S
C1760      C2029   1.494       .  S
C1761      O1762   1.251       .  A
C1761      C2041   1.479       .  S
O1763      C1778   1.270       .  A
O1763     Al1771   1.939       .  S
C1764      O1774   1.277       .  A
C1764      O1765   1.257       .  A
C1764      C1984   1.487       .  S
O1765     Al1767   1.877       .  S
O1766      C1768   1.276       .  A
O1766     Al1767   1.977       .  S
Al1767     O1775   1.982       .  S
Al1767     O1777   1.872       .  S
Al1767     O1776   1.767       .  S
C1768      O1781   1.255       .  A
O1769      C1779   1.275       .  A
O1769     Al1771   1.978       .  S
O1770      C1783   1.278       .  A
O1770     Al1780   2.018       .  S
Al1771     O1784   1.869       .  S
Al1771     O1781   1.865       .  S
Al1771     O1776   1.755       .  S
O1772      C1779   1.260       .  A
O1772     Al1780   1.876       .  S
O1773      C1782   1.256       .  A
O1773     Al1780   1.862       .  S
O1774     Al1780   1.997       .  S
O1775      C1782   1.280       .  A
O1776     Al1780   1.765       .  S
O1777      C1778   1.255       .  A
C1778      C2005   1.471       .  S
C1779      C1993   1.476       .  S
C1782      C1969   1.493       .  S
C1783      O1784   1.251       .  A
C1783      C2056   1.496       .  S
O1785     Al2489   1.957       .  S
C1786      O1796   1.273       .  A
C1786      O1787   1.258       .  A
C1786      C2065   1.482       .  S
O1787     Al1789   1.878       .  S
O1788      C1790   1.278       .  A
O1788     Al1789   1.975       .  S
Al1789     O1797   1.979       .  S
Al1789     O2495   1.872       .  S
C1790      O2499   1.253       .  A
C1790      C2632   1.470   1_545  S
O1791      C1801   1.281       .  A
O1791     Al1793   1.995       .  S
O1792      C1805   1.273       .  A
O1792     Al1802   1.997       .  S
Al1793     O2481   1.952   1_545  S
Al1793     O2502   1.867       .  S
Al1793     O2151   1.855       .  S
Al1793     O1798   1.750       .  S
O1794      C1801   1.261       .  A
O1794     Al1802   1.870       .  S
O1795      C1804   1.257       .  A
O1795     Al1802   1.861       .  S
O1798     Al1802   1.763       .  S
O1799      C1800   1.253       .  A
O1799     Al2485   1.872       .  S
C1800      C1957   1.481       .  S
C1801      C1945   1.480       .  S
O1803      C2486   1.253       .  A
O1803     Al2141   1.846   1_556  S
C1804      C2008   1.493       .  S
C1805      O2502   1.249       .  A
C1805      C2617   1.492       .  S
O1806      C2501   1.248       .  A
O1806     Al2489   1.865       .  S
O1807      C2518   1.273       .  A
O1807     Al1815   1.967       .  S
C1808      O1818   1.276       .  A
C1808      O1809   1.256       .  A
C1808      C1996   1.496       .  S
O1809     Al1811   1.861       .  S
O1810      C1812   1.274       .  A
O1810     Al1811   1.962       .  S
Al1811     O1819   1.970       .  S
Al1811     O1821   1.868       .  S
Al1811     O1820   1.761       .  S
C1812      O1825   1.254       .  A
C1812      C1924   1.462       .  S
O1813      C1823   1.280       .  A
O1813     Al1815   1.996       .  S
O1814      C1827   1.276       .  A
O1814     Al1824   1.990       .  S
Al1815     O1828   1.858       .  S
Al1815     O1825   1.850       .  S
Al1815     O1820   1.754       .  S
O1816      C1823   1.259       .  A
O1816     Al1824   1.869       .  S
O1817      C1826   1.256       .  A
O1817     Al1824   1.863       .  S
O1818     Al1824   1.987       .  S
O1819      C1826   1.276       .  A
O1820     Al1824   1.764       .  S
O1821      C2518   1.254       .  A
C1822      O2503   1.272       .  A
C1822      O2517   1.254       .  A
C1822      C1912   1.468   1_565  S
C1823      C1900   1.487       .  S
C1826      C2080   1.482       .  S
C1827      O1828   1.248       .  A
C1827      C1933   1.491       .  S
O1829      C1844   1.276       .  A
C1830      O1840   1.275       .  A
C1830      O1831   1.259       .  A
C1830      C1897   1.496       .  S
O1831     Al1833   1.885       .  S
O1832      C1834   1.279       .  A
O1832     Al1833   1.985       .  S
Al1833     O1841   2.006       .  S
Al1833     O1842   1.763       .  S
C1834      O1847   1.258       .  A
C1834      C1876   1.476       .  S
O1835      C1845   1.280       .  A
O1835     Al1837   2.011       .  S
O1836      C1849   1.275       .  A
O1836     Al1846   1.976       .  S
Al1837     O1850   1.863       .  S
Al1837     O1847   1.869       .  S
Al1837     O1842   1.762       .  S
O1838      C1845   1.256       .  A
O1838     Al1846   1.863       .  S
O1839      C1848   1.254       .  A
O1839     Al1846   1.860       .  S
O1840     Al1846   1.980       .  S
O1841      C1848   1.282       .  A
O1842     Al1846   1.751       .  S
O1843      C1844   1.258   1_455  A
C1844      C2032   1.477       .  S
C1845      C1981   1.503       .  S
C1848      C1960   1.500       .  S
C1849      O1850   1.252       .  A
O1851      C1866   1.272       .  A
C1852      O1862   1.272       .  A
C1852      O1853   1.262       .  A
C1852      C1948   1.497       .  S
O1853     Al1855   1.886       .  S
O1854      C1856   1.276       .  A
O1854     Al1855   1.977       .  S
Al1855     O1863   1.975       .  S
Al1855     O1865   1.864       .  S
Al1855     O1864   1.762       .  S
C1856      O1869   1.256       .  A
C1856      C1888   1.475       .  S
O1857      C1867   1.281       .  A
O1857     Al1859   2.006       .  S
O1858      C1871   1.275       .  A
O1858     Al1868   2.006       .  S
Al1859     O1872   1.868       .  S
Al1859     O1869   1.866       .  S
Al1859     O1864   1.757       .  S
O1860      C1867   1.255       .  A
O1860     Al1868   1.857       .  S
O1861      C1870   1.263       .  A
O1861     Al1868   1.873       .  S
O1862     Al1868   1.972       .  S
O1863      C1870   1.278       .  A
O1864     Al1868   1.759       .  S
C1866      C1972   1.473       .  S
C1867      C2020   1.497       .  S
C1870      C1909   1.491       .  S
C1871      O1872   1.250       .  A
C1871      C1873   1.504       .  S
C1873      C1874   1.417   1_655  A
C1873      C1878   1.416       .  A
C1875      C1876   1.406       .  A
C1875      S1879   1.805       .  S
C1877      C1878   1.407       .  A
C1877      H1884   1.084       .  S
C1878      S1880   1.800       .  S
S1879      H1882   1.406       .  S
S1880      H1881   1.407       .  S
C1885      C1886   1.401       .  A
C1886      C1887   1.403       .  A
C1886      H1895   1.083       .  S
C1887      S1891   1.803       .  S
C1888      C1889   1.396       .  A
C1889      C1890   1.401       .  A
C1889      H1896   1.084       .  S
C1890      S1892   1.805       .  S
S1891      H1894   1.407       .  S
C1897      C1898   1.407       .  A
C1897      C1902   1.415       .  A
C1898      C1899   1.402       .  A
C1898      H1907   1.084       .  S
C1899      C1900   1.416       .  A
C1899      S1903   1.805       .  S
C1900      C1901   1.403       .  A
C1901      C1902   1.409       .  A
C1901      H1908   1.082       .  S
C1902      S1904   1.797       .  S
S1903      H1906   1.408       .  S
S1904      H1905   1.408       .  S
C1909      C1910   1.413       .  A
C1909      C1914   1.418       .  A
C1910      C1911   1.399       .  A
C1910      H1919   1.084       .  S
C1911      C1912   1.405       .  A
C1911      S1915   1.803       .  S
C1912      C1913   1.402       .  A
C1913      C1914   1.400       .  A
C1913      H1920   1.085       .  S
C1914      S1916   1.801       .  S
S1915      H1918   1.405       .  S
S1916      H1917   1.407       .  S
C1921      C2501   1.485       .  S
C1921      C1922   1.417       .  A
C1921      C2622   1.408       .  A
C1922      C1923   1.394       .  A
C1922      H1931   1.083       .  S
C1923      C1924   1.400       .  A
C1923      S1927   1.804       .  S
C1924      C2621   1.407       .  A
C1925      C2620   1.409   1_545  A
C1925      C1926   1.408       .  A
C1925      H1932   1.083       .  S
C1926      C2617   1.410       .  A
C1926      S1928   1.806       .  S
S1927      H1930   1.406       .  S
S1928      H1929   1.407       .  S
C1933      C1934   1.402       .  A
C1933      C1938   1.426       .  A
C1934      C1935   1.403       .  A
C1934      H1943   1.082       .  S
C1935      C1936   1.414       .  A
C1935      S1939   1.806       .  S
C1936      C2486   1.469       .  S
C1936      C2633   1.392       .  A
C1937      C2632   1.389   1_545  A
C1937      C2634   1.401       .  A
C1937      H1944   1.083       .  S
C1938      C2633   1.402       .  A
C1938      S2636   1.808       .  S
S1939      H1942   1.407       .  S
S1940      C2634   1.812       .  S
S1940      H2637   1.406       .  S
H1941      S2636   1.407       .  S
C1945      C1946   1.403       .  A
C1945      C1950   1.410       .  A
C1946      C1947   1.408       .  A
C1946      H1955   1.083       .  S
C1947      C1948   1.420       .  A
C1947      S1951   1.806       .  S
C1948      C1949   1.409       .  A
C1949      C1950   1.402       .  A
C1949      H1956   1.082       .  S
C1950      S1952   1.807       .  S
S1951      H1954   1.407       .  S
S1952      H1953   1.407       .  S
C1957      C1958   1.409       .  A
C1957      C1962   1.402       .  A
C1958      C1959   1.406       .  A
C1958      H1967   1.084       .  S
C1959      C1960   1.412       .  A
C1959      S1963   1.799       .  S
C1960      C1961   1.419       .  A
C1961      C1962   1.403       .  A
C1961      H1968   1.082       .  S
C1962      S1964   1.808   1_556  S
S1963      H1966   1.408       .  S
S1964      H1965   1.406       .  S
C1969      C1970   1.405       .  A
C1969      C1974   1.428       .  A
C1970      C1971   1.400       .  A
C1970      H1979   1.084       .  S
C1971      C1972   1.413       .  A
C1971      S1975   1.800       .  S
C1972      C1973   1.393       .  A
C1973      C1974   1.402       .  A
C1973      H1980   1.083       .  S
C1974      S1976   1.813       .  S
S1976      H1977   1.407       .  S
C1981      C1982   1.413       .  A
C1981      C1986   1.417       .  A
C1982      C1983   1.394       .  A
C1982      H1991   1.083       .  S
C1983      S1987   1.806       .  S
C1984      C1985   1.409       .  A
C1985      H1992   1.083       .  S
C1993      C1994   1.406       .  A
C1993      C1998   1.404       .  A
C1994      C1995   1.408       .  A
C1994      H2003   1.082       .  S
C1995      C1996   1.417       .  A
C1995      S1999   1.807       .  S
C1996      C1997   1.413       .  A
C1997      C1998   1.399       .  A
C1997      H2004   1.081       .  S
C1998      S2000   1.808       .  S
S1999      H2002   1.407       .  S
S2000      H2001   1.407       .  S
C2005      C2006   1.407       .  A
C2005      C2010   1.400       .  A
C2006      C2007   1.404       .  A
C2006      H2015   1.084       .  S
C2007      C2008   1.413       .  A
C2008      C2009   1.416       .  A
C2009      C2010   1.397       .  A
C2009      H2016   1.082       .  S
C2010      S2012   1.809       .  S
S2011      H2014   1.408       .  S
S2012      H2013   1.407       .  S
C2017      C2018   1.407       .  A
C2017      C2022   1.402       .  A
C2018      C2019   1.408       .  A
C2018      H2027   1.079       .  S
C2019      C2020   1.414       .  A
C2019      S2023   1.799       .  S
C2020      C2021   1.416       .  A
C2021      C2022   1.394       .  A
C2021      H2028   1.083       .  S
C2022      S2024   1.805       .  S
S2023      H2026   1.408       .  S
S2024      H2025   1.407       .  S
C2029      C2030   1.402       .  A
C2029      C2034   1.426       .  A
C2030      C2031   1.398       .  A
C2030      H2039   1.083       .  S
C2031      C2032   1.412       .  A
C2031      S2035   1.796       .  S
C2032      C2033   1.398       .  A
C2033      C2034   1.409       .  A
C2033      H2040   1.083       .  S
C2034      S2036   1.810       .  S
S2036      H2037   1.407       .  S
C2041      C2042   1.400       .  A
C2041      C2046   1.416       .  A
C2042      C2043   1.398       .  A
C2042      H2051   1.080       .  S
C2043      C2044   1.412       .  A
C2043      S2047   1.802       .  S
C2044      C2045   1.404       .  A
C2045      C2046   1.403       .  A
C2045      H2052   1.085       .  S
C2046      S2048   1.804       .  S
S2048      H2049   1.407       .  S
C2053      C2054   1.417       .  A
C2053      C2058   1.406       .  A
C2054      C2055   1.414       .  A
C2054      H2063   1.082       .  S
C2055      C2056   1.405       .  A
C2055      S2059   1.803       .  S
C2056      C2057   1.413       .  A
C2057      C2058   1.398       .  A
C2057      H2064   1.082       .  S
C2058      S2060   1.803       .  S
S2059      H2062   1.407       .  S
S2060      H2061   1.407       .  S
C2065      C2066   1.412       .  A
C2065      C2070   1.406       .  A
C2066      C2067   1.407       .  A
C2066      H2075   1.084       .  S
C2067      C2068   1.408       .  A
C2067      S2071   1.799       .  S
C2068      C2069   1.411       .  A
C2069      C2070   1.399       .  A
C2069      H2076   1.084       .  S
C2070      S2072   1.803       .  S
S2071      H2074   1.404       .  S
S2072      H2073   1.405       .  S
C2077      C2078   1.395       .  A
C2077      C2082   1.411       .  A
C2078      C2079   1.398       .  A
C2078      H2087   1.084       .  S
C2079      C2080   1.421       .  A
C2079      S2083   1.804       .  S
C2080      C2081   1.404       .  A
C2081      C2082   1.402       .  A
C2081      H2088   1.082       .  S
C2082      S2084   1.807       .  S
S2083      H2086   1.408       .  S
S2084      H2085   1.407       .  S
O2089      C2104   1.273       .  A
O2089     Al2097   1.963       .  S
C2090      O2100   1.272       .  A
C2090      O2091   1.256       .  A
C2090      C2365   1.468       .  S
O2091     Al2093   1.866       .  S
O2092      C2094   1.277       .  A
O2092     Al2093   1.972       .  S
Al2093     O2101   1.996       .  S
Al2093     O2103   1.876       .  S
Al2093     O2102   1.761       .  S
C2094      O2107   1.258       .  A
C2094      C2401   1.487       .  S
O2095      C2105   1.280       .  A
O2095     Al2097   1.994       .  S
O2096      C2109   1.271       .  A
O2096     Al2106   1.971       .  S
Al2097     O2110   1.881       .  S
Al2097     O2107   1.875       .  S
Al2097     O2102   1.761       .  S
O2098      C2105   1.257       .  A
O2098     Al2106   1.870       .  S
O2099      C2108   1.255       .  A
O2099     Al2106   1.866       .  S
O2100     Al2106   1.974       .  S
O2101      C2108   1.281       .  A
O2102     Al2106   1.769       .  S
O2103      C2104   1.257       .  A
C2104      C2425   1.472       .  S
C2105      C2416   1.480       .  S
C2108      C2377   1.495       .  S
C2109      O2110   1.252       .  A
C2109      C2389   1.474       .  S
O2111      C2126   1.273       .  A
O2111     Al2119   1.949       .  S
C2112      O2122   1.278       .  A
C2112      O2113   1.259       .  A
C2112      C2332   1.487       .  S
O2113     Al2115   1.875       .  S
O2114      C2116   1.278       .  A
O2114     Al2115   1.989       .  S
Al2115     O2123   1.984       .  S
Al2115     O2125   1.865       .  S
Al2115     O2124   1.768       .  S
C2116      O2129   1.257       .  A
C2116      C2740   1.482   1_554  S
O2117      C2127   1.276       .  A
O2117     Al2119   1.984       .  S
O2118      C2131   1.278       .  A
O2118     Al2128   2.012       .  S
Al2119     O2132   1.864       .  S
Al2119     O2129   1.874       .  S
Al2119     O2124   1.757       .  S
O2120      C2127   1.259       .  A
O2120     Al2128   1.879       .  S
O2121      C2130   1.257       .  A
O2121     Al2128   1.871       .  S
O2122     Al2128   1.999       .  S
O2123      C2130   1.279       .  A
O2124     Al2128   1.764       .  S
O2125      C2126   1.254       .  A
C2126      C2353   1.466       .  S
C2127      C2341   1.477       .  S
C2130      C2317   1.497       .  S
C2131      O2132   1.250       .  A
C2131      C2404   1.498       .  S
O2133      C2496   1.271       .  A
C2134      O2144   1.274       .  A
C2134      O2135   1.258       .  A
C2134      C2413   1.485       .  S
O2135     Al2137   1.874       .  S
O2136      C2138   1.277       .  A
O2136     Al2137   1.972       .  S
Al2137     O2145   1.987       .  S
Al2137     O2494   1.763       .  S
O2139      C2149   1.280       .  A
O2139     Al2141   1.998       .  S
O2140      C2153   1.272       .  A
O2140     Al2150   1.988       .  S
Al2141     O2146   1.755       .  S
O2142      C2149   1.262       .  A
O2142     Al2150   1.880       .  S
O2143      C2152   1.258       .  A
O2143     Al2150   1.861       .  S
O2144     Al2498   1.975       .  S
O2145      C2500   1.279       .  A
O2146     Al2485   1.767   1_554  S
O2146     Al2150   1.766       .  S
O2147      C2148   1.255   1_545  A
C2148      O2481   1.271       .  A
C2148      C2305   1.479       .  S
C2149      C2293   1.483       .  S
Al2150     O2492   1.974   1_554  S
C2152      O2493   1.278   1_554  A
C2152      C2356   1.488       .  S
O2155     Al2163   1.958       .  S
C2156      O2166   1.275       .  A
C2156      O2157   1.258       .  A
C2156      C2344   1.503       .  S
O2157     Al2159   1.875       .  S
O2158      C2160   1.274       .  A
O2158     Al2159   1.961       .  S
Al2159     O2167   1.964       .  S
Al2159     O2169   1.868       .  S
Al2159     O2168   1.763       .  S
C2160      O2173   1.255       .  A
C2160      C2272   1.473       .  S
O2161      C2171   1.278       .  A
O2161     Al2163   1.984       .  S
O2162      C2175   1.276       .  A
O2162     Al2172   1.996       .  S
Al2163     O2176   1.863       .  S
Al2163     O2173   1.857       .  S
Al2163     O2168   1.760       .  S
O2164      C2171   1.260       .  A
O2164     Al2172   1.867       .  S
O2165      C2174   1.261       .  A
O2165     Al2172   1.879       .  S
O2166     Al2172   1.986       .  S
O2167      C2174   1.276       .  A
O2168     Al2172   1.771       .  S
C2170      C2260   1.470       .  S
C2171      C2248   1.481       .  S
C2174      C2428   1.483       .  S
C2175      O2176   1.249       .  A
C2175      C2281   1.498       .  S
O2177      C2192   1.278       .  A
C2178      O2188   1.275       .  A
C2178      O2179   1.260       .  A
C2178      C2245   1.489       .  S
O2179     Al2181   1.875       .  S
O2180      C2182   1.277       .  A
O2180     Al2181   1.982       .  S
Al2181     O2189   1.999       .  S
Al2181     O2190   1.765       .  S
C2182      O2195   1.257       .  A
C2182      C2224   1.476       .  S
O2183      C2193   1.282       .  A
O2183     Al2185   2.014       .  S
O2184      C2197   1.273       .  A
O2184     Al2194   1.968       .  S
Al2185     O2198   1.864       .  S
Al2185     O2195   1.872       .  S
Al2185     O2190   1.758       .  S
O2186      C2193   1.256       .  A
O2186     Al2194   1.864       .  S
O2187      C2196   1.253       .  A
O2187     Al2194   1.864       .  S
O2188     Al2194   1.979       .  S
O2189      C2196   1.279       .  A
O2190     Al2194   1.752       .  S
O2191      C2192   1.257   1_455  A
C2192      C2380   1.481       .  S
C2193      C2329   1.507       .  S
C2196      C2308   1.493       .  S
C2197      O2198   1.252       .  A
C2197      C2581   1.479       .  S
O2199      C2214   1.273       .  A
C2200      O2210   1.273       .  A
C2200      O2201   1.263       .  A
C2200      C2296   1.502       .  S
O2201     Al2203   1.890       .  S
O2202      C2204   1.277       .  A
O2202     Al2203   1.985       .  S
Al2203     O2211   1.972       .  S
Al2203     O2213   1.873       .  S
Al2203     O2212   1.761       .  S
C2204      O2217   1.256       .  A
C2204      C2236   1.477       .  S
O2205      C2215   1.278       .  A
O2205     Al2207   1.992       .  S
O2206      C2219   1.276       .  A
O2206     Al2216   2.004       .  S
Al2207     O2220   1.865       .  S
Al2207     O2217   1.868       .  S
Al2207     O2212   1.757       .  S
O2208      C2215   1.255       .  A
O2208     Al2216   1.861       .  S
O2209      C2218   1.262       .  A
O2209     Al2216   1.875       .  S
O2210     Al2216   1.971       .  S
O2211      C2218   1.277       .  A
O2212     Al2216   1.759       .  S
C2214      C2320   1.480       .  S
C2215      C2368   1.493       .  S
C2218      C2257   1.492       .  S
C2219      O2220   1.251       .  A
C2219      C2221   1.499       .  S
C2221      C2222   1.415       .  A
C2221      C2226   1.415       .  A
C2223      C2224   1.404       .  A
C2223      S2227   1.804       .  S
C2225      C2226   1.407       .  A
C2225      H2232   1.084       .  S
C2226      S2228   1.800       .  S
S2227      H2230   1.406       .  S
S2228      H2229   1.407       .  S
C2233      C2545   1.483   1_554  S
C2233      C2234   1.400       .  A
C2234      C2235   1.401       .  A
C2234      H2243   1.083       .  S
C2235      S2239   1.804       .  S
C2236      C2237   1.400       .  A
C2237      C2238   1.403       .  A
C2237      H2244   1.084       .  S
C2238      S2240   1.804       .  S
S2239      H2242   1.407       .  S
S2240      H2589   1.407       .  S
H2241      S2588   1.408       .  S
C2245      C2246   1.405       .  A
C2245      C2250   1.415       .  A
C2246      C2247   1.398       .  A
C2246      H2255   1.084       .  S
C2247      C2248   1.413       .  A
C2247      S2251   1.805       .  S
C2248      C2249   1.404       .  A
C2249      C2250   1.408       .  A
C2249      H2256   1.083       .  S
C2250      S2252   1.799       .  S
S2251      H2254   1.407       .  S
S2252      H2253   1.407       .  S
C2257      C2258   1.413       .  A
C2257      C2262   1.418       .  A
C2258      C2259   1.400       .  A
C2258      H2267   1.084       .  S
C2259      C2260   1.406       .  A
C2259      S2263   1.802       .  S
C2260      C2261   1.401       .  A
C2261      C2262   1.399       .  A
C2261      H2268   1.085       .  S
C2262      S2264   1.801       .  S
S2263      H2266   1.406       .  S
S2264      H2265   1.408       .  S
C2269      C2270   1.414   1_545  A
C2270      C2271   1.394       .  A
C2270      H2279   1.083       .  S
C2271      C2272   1.402       .  A
C2271      S2275   1.804       .  S
C2273      C2274   1.405       .  A
C2273      H2280   1.083       .  S
C2274      S2276   1.806       .  S
S2275      H2278   1.406       .  S
S2276      H2277   1.407       .  S
C2281      C2282   1.404       .  A
C2281      C2286   1.426       .  A
C2282      C2283   1.408       .  A
C2282      H2291   1.083       .  S
C2283      C2284   1.417       .  A
C2283      S2287   1.806       .  S
C2285      H2292   1.084       .  S
S2287      H2290   1.407       .  S
C2293      C2294   1.403       .  A
C2293      C2298   1.407       .  A
C2294      C2295   1.409       .  A
C2294      H2303   1.082       .  S
C2295      C2296   1.422       .  A
C2295      S2299   1.808       .  S
C2296      C2297   1.411       .  A
C2297      C2298   1.405       .  A
C2297      H2304   1.082       .  S
C2298      S2300   1.806   1_554  S
S2299      H2302   1.406       .  S
S2300      H2301   1.407       .  S
C2305      C2306   1.411       .  A
C2305      C2310   1.404       .  A
C2306      C2307   1.404       .  A
C2306      H2315   1.084       .  S
C2307      C2308   1.410       .  A
C2307      S2311   1.800       .  S
C2308      C2309   1.416       .  A
C2309      C2310   1.399       .  A
C2309      H2316   1.081       .  S
C2310      S2312   1.809       .  S
S2311      H2314   1.407       .  S
S2312      H2313   1.406       .  S
C2317      C2318   1.405       .  A
C2317      C2322   1.428       .  A
C2318      C2319   1.401       .  A
C2318      H2327   1.084       .  S
C2319      C2320   1.414       .  A
C2319      S2323   1.799       .  S
C2320      C2321   1.396       .  A
C2321      C2322   1.405       .  A
C2321      H2328   1.083       .  S
C2322      S2324   1.812       .  S
S2324      H2325   1.406       .  S
C2329      C2330   1.414       .  A
C2329      C2334   1.417       .  A
C2330      C2331   1.398       .  A
C2330      H2339   1.084       .  S
C2331      C2680   1.407       .  A
C2331      S2335   1.807       .  S
C2332      C2679   1.406   1_554  A
C2332      C2333   1.411       .  A
C2333      C2682   1.420   1_554  A
C2333      H2340   1.083       .  S
C2334      C2681   1.417       .  A
C2334      S2684   1.805       .  S
S2335      H2686   1.407       .  S
S2336      C2682   1.805       .  S
S2336      H2685   1.403   1_556  S
H2337      S2684   1.404       .  S
H2338      S2683   1.407   1_554  S
C2341      C2342   1.405       .  A
C2341      C2346   1.402       .  A
C2342      C2343   1.405       .  A
C2342      H2351   1.083       .  S
C2343      C2344   1.419       .  A
C2343      S2347   1.801       .  S
C2344      C2345   1.417       .  A
C2345      C2346   1.405       .  A
C2345      H2352   1.082       .  S
C2346      S2348   1.807       .  S
S2347      H2350   1.400       .  S
S2348      H2349   1.407       .  S
C2353      C2354   1.405       .  A
C2353      C2358   1.400       .  A
C2354      C2355   1.401       .  A
C2354      H2363   1.084   1_554  S
C2355      C2356   1.413       .  A
C2355      S2707   1.801   1_554  S
C2356      C2357   1.415       .  A
C2357      C2358   1.397       .  A
C2357      H2364   1.082       .  S
C2358      S2360   1.808       .  S
S2359      C2703   1.801       .  S
S2359      H2362   1.408       .  S
S2360      H2361   1.407       .  S
C2365      C2366   1.404       .  A
C2365      C2370   1.405       .  A
C2366      C2367   1.405       .  A
C2366      H2375   1.080       .  S
C2367      C2368   1.414       .  A
C2367      S2371   1.798       .  S
C2368      C2369   1.414       .  A
C2369      C2370   1.393       .  A
C2369      H2376   1.083       .  S
C2370      S2372   1.806       .  S
S2371      H2374   1.407       .  S
S2372      H2373   1.407       .  S
C2377      C2378   1.402       .  A
C2377      C2382   1.425       .  A
C2378      C2379   1.402       .  A
C2378      H2387   1.083       .  S
C2379      C2380   1.414       .  A
C2379      S2383   1.795       .  S
C2380      C2381   1.397       .  A
C2381      C2382   1.408       .  A
C2381      H2388   1.083       .  S
C2382      S2384   1.809       .  S
S2384      H2385   1.407       .  S
C2389      C2390   1.398       .  A
C2389      C2394   1.410       .  A
C2390      C2391   1.394       .  A
C2390      H2399   1.078       .  S
C2391      C2392   1.409       .  A
C2391      S2395   1.805       .  S
C2392      C2464   1.476       .  S
C2392      C2393   1.409       .  A
C2393      C2394   1.404       .  A
C2393      H2400   1.085       .  S
C2394      S2396   1.802       .  S
S2395      H2746   1.407       .  S
S2396      H2397   1.407       .  S
H2398      S2743   1.407       .  S
C2401      C2402   1.414       .  A
C2401      C2406   1.405       .  A
C2402      C2403   1.412       .  A
C2402      H2411   1.083       .  S
C2403      C2404   1.408       .  A
C2403      S2407   1.804       .  S
C2404      C2405   1.416       .  A
C2405      C2406   1.399       .  A
C2405      H2412   1.083       .  S
C2406      S2408   1.804       .  S
S2407      H2410   1.407       .  S
S2408      H2409   1.405       .  S
C2413      C2414   1.413       .  A
C2413      C2418   1.408       .  A
C2414      C2415   1.404       .  A
C2414      H2423   1.084       .  S
C2415      C2416   1.405       .  A
C2415      S2419   1.802       .  S
C2416      C2417   1.410       .  A
C2417      C2418   1.400       .  A
C2417      H2424   1.083       .  S
C2418      S2420   1.803       .  S
S2419      H2422   1.404       .  S
S2420      H2421   1.406       .  S
C2425      C2426   1.399       .  A
C2425      C2430   1.412       .  A
C2426      C2427   1.402       .  A
C2426      H2435   1.084       .  S
C2427      C2428   1.417       .  A
C2427      S2431   1.802       .  S
C2428      C2429   1.404       .  A
C2429      C2430   1.398       .  A
C2429      H2436   1.084       .  S
C2430      S2432   1.797       .  S
S2431      H2434   1.408       .  S
S2432      H2433   1.404       .  S
O2437      C2452   1.275       .  A
O2437     Al2445   1.970       .  S
C2438      O2448   1.274       .  A
C2438      O2439   1.258       .  A
C2438      C2713   1.479       .  S
O2439     Al2441   1.871       .  S
O2440      C2442   1.277       .  A
O2440     Al2441   1.970       .  S
Al2441     O2449   1.990       .  S
Al2441     O2451   1.880       .  S
Al2441     O2450   1.764       .  S
C2442      O2455   1.259       .  A
C2442      C2749   1.485       .  S
O2443      C2453   1.280       .  A
O2443     Al2445   2.002       .  S
O2444      C2457   1.274       .  A
O2444     Al2454   1.976       .  S
Al2445     O2458   1.875       .  S
Al2445     O2455   1.871       .  S
Al2445     O2450   1.764       .  S
O2446      C2453   1.258       .  A
O2446     Al2454   1.868       .  S
O2447      C2456   1.253       .  A
O2447     Al2454   1.862       .  S
O2448     Al2454   1.983       .  S
O2449      C2456   1.279       .  A
O2450     Al2454   1.761       .  S
O2451      C2452   1.258       .  A
C2452      C2773   1.475       .  S
C2453      C2764   1.487       .  S
C2456      C2725   1.494       .  S
C2457      O2458   1.253       .  A
C2457      C2737   1.483       .  S
O2459      C2474   1.273       .  A
O2459     Al2467   1.954       .  S
C2460      O2470   1.279       .  A
C2460      O2461   1.257       .  A
C2460      C2680   1.483       .  S
O2461     Al2463   1.868       .  S
O2462      C2464   1.278       .  A
O2462     Al2463   1.978       .  S
Al2463     O2471   1.985       .  S
Al2463     O2473   1.875       .  S
Al2463     O2472   1.768       .  S
C2464      O2477   1.256       .  A
O2465      C2475   1.274       .  A
O2465     Al2467   1.980       .  S
O2466      C2479   1.278       .  A
O2466     Al2476   2.008       .  S
Al2467     O2480   1.861       .  S
Al2467     O2477   1.866       .  S
Al2467     O2472   1.752       .  S
O2468      C2475   1.259       .  A
O2468     Al2476   1.883       .  S
O2469      C2478   1.253       .  A
O2469     Al2476   1.862       .  S
O2470     Al2476   1.999       .  S
O2471      C2478   1.279       .  A
O2472     Al2476   1.759       .  S
O2473      C2474   1.257       .  A
C2474      C2701   1.474       .  S
C2475      C2689   1.477       .  S
C2478      C2665   1.494       .  S
C2479      O2480   1.250       .  A
C2479      C2752   1.491       .  S
C2482      O2492   1.273       .  A
C2482      O2483   1.258       .  A
C2482      C2761   1.483       .  S
O2483     Al2485   1.878       .  S
O2484      C2486   1.279       .  A
O2484     Al2485   1.981       .  S
Al2485     O2493   1.977       .  S
O2487      C2497   1.282       .  A
O2487     Al2489   2.009       .  S
O2488      C2501   1.272       .  A
O2488     Al2498   1.984       .  S
Al2489     O2494   1.752       .  S
O2490      C2497   1.259       .  A
O2490     Al2498   1.870       .  S
O2491      C2500   1.258       .  A
O2491     Al2498   1.866       .  S
O2494     Al2498   1.763       .  S
O2495      C2496   1.254   1_545  A
C2496      C2653   1.478       .  S
C2497      C2641   1.484       .  S
C2500      C2704   1.487       .  S
O2503     Al2511   1.960       .  S
C2504      O2514   1.276       .  A
C2504      O2505   1.257       .  A
C2504      C2692   1.500       .  S
O2505     Al2507   1.870       .  S
O2506      C2508   1.276       .  A
O2506     Al2507   1.968       .  S
Al2507     O2515   1.979       .  S
Al2507     O2517   1.866       .  S
Al2507     O2516   1.757       .  S
C2508      O2521   1.255       .  A
C2508      C2620   1.470       .  S
O2509      C2519   1.281       .  A
O2509     Al2511   2.003       .  S
O2510      C2523   1.276       .  A
O2510     Al2520   2.000       .  S
Al2511     O2524   1.860       .  S
Al2511     O2521   1.855       .  S
Al2511     O2516   1.754       .  S
O2512      C2519   1.259       .  A
O2512     Al2520   1.861       .  S
O2513      C2522   1.259       .  A
O2513     Al2520   1.871       .  S
O2514     Al2520   1.991       .  S
O2515      C2522   1.279       .  A
O2516     Al2520   1.770       .  S
C2518      C2608   1.469       .  S
C2519      C2596   1.485       .  S
C2522      C2776   1.485       .  S
C2523      O2524   1.244       .  A
C2523      C2629   1.495       .  S
O2525      C2540   1.277       .  A
C2526      O2536   1.275       .  A
C2526      O2527   1.260       .  A
C2526      C2593   1.495       .  S
O2527     Al2529   1.880       .  S
O2528      C2530   1.277       .  A
O2528     Al2529   1.978       .  S
Al2529     O2537   1.996       .  S
Al2529     O2538   1.765       .  S
C2530      O2543   1.257       .  A
C2530      C2572   1.473       .  S
O2531      C2541   1.282       .  A
O2531     Al2533   2.019       .  S
O2532      C2545   1.274       .  A
O2532     Al2542   1.975       .  S
Al2533     O2546   1.862       .  S
Al2533     O2543   1.867       .  S
Al2533     O2538   1.761       .  S
O2534      C2541   1.257       .  A
O2534     Al2542   1.866       .  S
O2535      C2544   1.256       .  A
O2535     Al2542   1.865       .  S
O2536     Al2542   1.979       .  S
O2537      C2544   1.279       .  A
O2538     Al2542   1.756       .  S
O2539      C2540   1.257   1_455  A
C2540      C2728   1.474       .  S
C2541      C2677   1.509       .  S
C2544      C2656   1.499       .  S
C2545      O2546   1.251       .  A
O2547      C2562   1.273       .  A
C2548      O2558   1.273       .  A
C2548      O2549   1.263       .  A
C2548      C2644   1.505       .  S
O2549     Al2551   1.894       .  S
O2550      C2552   1.276       .  A
O2550     Al2551   1.972       .  S
Al2551     O2559   1.969       .  S
Al2551     O2561   1.871       .  S
Al2551     O2560   1.764       .  S
C2552      O2565   1.256       .  A
C2552      C2584   1.473       .  S
O2553      C2563   1.280       .  A
O2553     Al2555   2.004       .  S
O2554      C2567   1.274       .  A
O2554     Al2564   2.007       .  S
Al2555     O2568   1.867       .  S
Al2555     O2565   1.865       .  S
Al2555     O2560   1.757       .  S
O2556      C2563   1.259       .  A
O2556     Al2564   1.859       .  S
O2557      C2566   1.264       .  A
O2557     Al2564   1.877       .  S
O2558     Al2564   1.973       .  S
O2559      C2566   1.277       .  A
O2560     Al2564   1.765       .  S
C2562      C2668   1.476       .  S
C2563      C2716   1.496       .  S
C2566      C2605   1.489       .  S
C2567      O2568   1.248       .  A
C2567      C2569   1.500       .  S
C2569      C2570   1.419   1_655  A
C2569      C2574   1.413       .  A
C2571      C2572   1.405       .  A
C2571      S2575   1.807       .  S
C2573      C2574   1.407       .  A
C2573      H2580   1.084       .  S
C2574      S2576   1.800       .  S
S2575      H2578   1.404       .  S
S2576      H2577   1.407       .  S
C2581      C2582   1.400       .  A
C2582      C2583   1.400       .  A
C2582      H2591   1.083       .  S
C2583      S2587   1.802       .  S
C2584      C2585   1.397       .  A
C2585      C2586   1.400       .  A
C2585      H2592   1.084       .  S
C2586      S2588   1.804       .  S
S2587      H2590   1.406       .  S
C2593      C2594   1.407       .  A
C2593      C2598   1.417       .  A
C2594      C2595   1.399       .  A
C2594      H2603   1.084       .  S
C2595      C2596   1.414       .  A
C2595      S2599   1.806       .  S
C2596      C2597   1.405       .  A
C2597      C2598   1.411       .  A
C2597      H2604   1.082       .  S
C2598      S2600   1.801       .  S
S2599      H2602   1.407       .  S
S2600      H2601   1.407       .  S
C2605      C2606   1.411       .  A
C2605      C2610   1.418       .  A
C2606      C2607   1.400       .  A
C2606      H2615   1.084       .  S
C2607      C2608   1.406       .  A
C2607      S2611   1.802       .  S
C2608      C2609   1.402       .  A
C2609      C2610   1.400       .  A
C2609      H2616   1.085       .  S
C2610      S2612   1.802       .  S
S2611      H2614   1.405       .  S
S2612      H2613   1.407       .  S
C2617      C2618   1.417   1_545  A
C2618      C2619   1.394       .  A
C2618      H2627   1.083       .  S
C2619      C2620   1.400       .  A
C2619      S2623   1.804       .  S
C2621      C2622   1.402       .  A
C2621      H2628   1.083       .  S
C2622      S2624   1.806       .  S
S2623      H2626   1.407       .  S
S2624      H2625   1.407       .  S
C2629      C2630   1.402       .  A
C2629      C2634   1.433   1_565  A
C2630      C2631   1.403       .  A
C2630      H2639   1.082       .  S
C2631      C2632   1.415       .  A
C2631      S2635   1.808       .  S
C2633      H2640   1.083       .  S
S2635      H2638   1.406       .  S
C2641      C2642   1.403       .  A
C2641      C2646   1.409       .  A
C2642      C2643   1.410       .  A
C2642      H2651   1.082       .  S
C2643      C2644   1.423       .  A
C2643      S2647   1.807       .  S
C2644      C2645   1.412       .  A
C2645      C2646   1.406       .  A
C2645      H2652   1.082       .  S
C2646      S2648   1.808       .  S
S2647      H2650   1.406       .  S
S2648      H2649   1.406       .  S
C2653      C2654   1.407       .  A
C2653      C2658   1.402       .  A
C2654      C2655   1.405       .  A
C2654      H2663   1.084       .  S
C2655      C2656   1.414       .  A
C2655      S2659   1.800       .  S
C2656      C2657   1.417       .  A
C2657      C2658   1.402       .  A
C2657      H2664   1.082   1_556  S
C2658      S2660   1.807   1_556  S
S2659      H2662   1.408       .  S
S2660      H2661   1.407       .  S
C2665      C2666   1.405       .  A
C2665      C2670   1.429       .  A
C2666      C2667   1.405       .  A
C2666      H2675   1.082       .  S
C2667      C2668   1.414       .  A
C2667      S2671   1.807       .  S
C2668      C2669   1.393       .  A
C2669      C2670   1.401       .  A
C2669      H2676   1.083       .  S
C2670      S2672   1.813       .  S
S2672      H2673   1.407       .  S
C2677      C2678   1.414       .  A
C2677      C2682   1.418       .  A
C2678      C2679   1.398       .  A
C2678      H2687   1.083       .  S
C2679      S2683   1.806       .  S
C2680      C2681   1.409       .  A
C2681      H2688   1.083       .  S
C2689      C2690   1.406       .  A
C2689      C2694   1.401       .  A
C2690      C2691   1.403       .  A
C2690      H2699   1.082       .  S
C2691      C2692   1.415       .  A
C2691      S2695   1.799       .  S
C2692      C2693   1.418       .  A
C2693      C2694   1.405       .  A
C2693      H2700   1.082       .  S
C2694      S2696   1.806       .  S
S2695      H2698   1.405       .  S
S2696      H2697   1.407       .  S
C2701      C2702   1.408       .  A
C2701      C2706   1.403       .  A
C2702      C2703   1.403       .  A
C2702      H2711   1.084       .  S
C2703      C2704   1.411       .  A
C2704      C2705   1.414       .  A
C2705      C2706   1.396       .  A
C2705      H2712   1.082       .  S
C2706      S2708   1.809       .  S
S2707      H2710   1.408       .  S
S2708      H2709   1.406       .  S
C2713      C2714   1.407       .  A
C2713      C2718   1.408       .  A
C2714      C2715   1.410       .  A
C2714      H2723   1.084       .  S
C2715      C2716   1.418       .  A
C2715      S2719   1.798       .  S
C2716      C2717   1.411       .  A
C2717      C2718   1.394       .  A
C2717      H2724   1.084       .  S
C2718      S2720   1.805       .  S
S2719      H2722   1.407       .  S
S2720      H2721   1.407       .  S
C2725      C2726   1.404       .  A
C2725      C2730   1.428       .  A
C2726      C2727   1.400       .  A
C2726      H2735   1.083       .  S
C2727      C2728   1.413       .  A
C2727      S2731   1.799       .  S
C2728      C2729   1.394       .  A
C2729      C2730   1.404       .  A
C2729      H2736   1.083       .  S
C2730      S2732   1.812       .  S
S2732      H2733   1.407       .  S
C2737      C2738   1.401       .  A
C2737      C2742   1.417       .  A
C2738      C2739   1.402       .  A
C2738      H2747   1.081       .  S
C2739      C2740   1.414       .  A
C2739      S2743   1.802       .  S
C2740      C2741   1.404       .  A
C2741      C2742   1.405       .  A
C2741      H2748   1.084       .  S
C2742      S2744   1.804       .  S
S2744      H2745   1.407       .  S
C2749      C2750   1.415       .  A
C2749      C2754   1.406       .  A
C2750      C2751   1.411       .  A
C2750      H2759   1.083       .  S
C2751      C2752   1.405       .  A
C2751      S2755   1.804       .  S
C2752      C2753   1.414       .  A
C2753      C2754   1.396       .  A
C2753      H2760   1.083       .  S
C2754      S2756   1.803       .  S
S2755      H2758   1.407       .  S
S2756      H2757   1.402       .  S
C2761      C2762   1.413       .  A
C2761      C2766   1.405       .  A
C2762      C2763   1.409       .  A
C2762      H2771   1.084       .  S
C2763      C2764   1.409       .  A
C2763      S2767   1.802       .  S
C2764      C2765   1.411       .  A
C2765      C2766   1.398       .  A
C2765      H2772   1.083       .  S
C2766      S2768   1.801       .  S
S2767      H2770   1.406       .  S
S2768      H2769   1.403       .  S
C2773      C2774   1.399       .  A
C2773      C2778   1.412       .  A
C2774      C2775   1.403       .  A
C2774      H2783   1.084       .  S
C2775      C2776   1.420       .  A
C2775      S2779   1.804       .  S
C2776      C2777   1.403       .  A
C2777      C2778   1.402       .  A
C2777      H2784   1.083       .  S
C2778      S2780   1.805       .  S
S2779      H2782   1.407       .  S
S2780      H2781   1.407       .  S
