geometry optimzed in LAMMPS
_audit_creation_date              2020-11-30 
_audit_creation_method            'lammps2cif' 
_symmetry_space_group_name_H-M    'P1' 
_symmetry_Int_Tables_number       1 
_symmetry_cell_setting            triclinic 
loop_ 
_symmetry_equiv_pos_as_xyz 
  x,y,z 
_cell_length_a                    27.48913848 
_cell_length_b                    27.82516575045976 
_cell_length_c                    27.60171535503571 
_cell_angle_alpha                 90.41754740412497 
_cell_angle_beta                  89.80319922241983 
_cell_angle_gamma                 89.81132834462076 
loop_ 
_atom_site_label 
_atom_site_type_symbol 
_atom_site_fract_x 
_atom_site_fract_y 
_atom_site_fract_z 
_atom_site_charge 
O1          O  0.44677264  0.72411581  0.95295844    -0.71500
O2          O  0.54705218  0.63199686  0.95800008    -0.71800
O3          O  0.44940983  0.62798645  0.95543078    -0.71600
O4          O  0.54559413  0.72827777  0.96025122    -0.71600
O5          O  0.54075005  0.72657320  0.03882695    -0.71600
O6          O  0.44485956  0.63066925  0.03402383    -0.71600
O7          O  0.54245178  0.63059693  0.03660633    -0.71600
O8          O  0.44231154  0.72716845  0.03155746    -0.71700
V9          V  0.49704843  0.67835244  0.95817797     1.35200
V10         V  0.49264691  0.67895520  0.03370285     1.35200
C11         C  0.42650161  0.74048392  0.99051610     0.77700
C12         C  0.56163916  0.61513135  0.99744729     0.77700
C13         C  0.43112342  0.61236114  0.99468520     0.77600
C14         C  0.56101259  0.74244612  0.00136155     0.77600
C15         C  0.86022693  0.74420280  0.97809547     0.86700
C16         C  0.89725701  0.74942695  0.93938275    -0.53500
C17         C  0.92479135  0.79077612  0.94144172     0.09600
C18         C  0.91132806  0.82328890  0.98876618     0.20600
C19         C  0.89172106  0.74684711  0.02313825    -0.54200
C20         C  0.91666571  0.78860632  0.03203044     0.09700
C21         C  0.83127918  0.79030964  0.97369479    -0.53800
C22         C  0.85445546  0.83195628  0.98809010     0.10300
H23         H  0.90435107  0.71924791  0.91600109     0.14800
H24         H  0.93289879  0.85673428  0.99253324     0.00600
H25         H  0.89581914  0.71455277  0.04443636     0.15100
H26         H  0.79209626  0.78799983  0.96887010     0.14900
C27         C  0.73467928  0.86132781  0.02798410     0.86700
C28         C  0.73326321  0.90463689  0.06047846    -0.53500
C29         C  0.77315495  0.93434139  0.05716291     0.09600
C30         C  0.80967187  0.91819885  0.01530138     0.20600
C31         C  0.74116157  0.88165156  0.97675577    -0.54200
C32         C  0.77663313  0.91576805  0.97093818     0.09700
C33         C  0.78402514  0.83945805  0.04175591    -0.53800
C34         C  0.82392081  0.86362777  0.02378129     0.10300
H35         H  0.70201969  0.91004497  0.08370250     0.14800
H36         H  0.84139719  0.94222721  0.01068614     0.00600
H37         H  0.71733232  0.86969272  0.94807419     0.15100
H38         H  0.78783249  0.80276769  0.05291017     0.14900
O39         O  0.71356497  0.46707723  0.03869772    -0.71500
O40         O  0.61505524  0.56134328  0.03619855    -0.71800
O41         O  0.61600858  0.46476501  0.03553424    -0.71600
O42         O  0.71273120  0.56385040  0.03469456    -0.71600
O43         O  0.71531326  0.55777569  0.95639971    -0.71600
O44         O  0.61561805  0.46554225  0.95679964    -0.71600
O45         O  0.61773900  0.56203113  0.95749939    -0.71600
O46         O  0.71284027  0.46092504  0.96031632    -0.71700
V47         V  0.66445297  0.51416419  0.03479261     1.35200
V48         V  0.66547142  0.51174742  0.95927451     1.35200
C49         C  0.72889991  0.44649072  0.00086880     0.77700
C50         C  0.59975569  0.57811721  0.99695860     0.77700
C51         C  0.59930920  0.44870799  0.99564248     0.77600
C52         C  0.73029222  0.57779631  0.99449511     0.77600
C53         C  0.73334062  0.14987415  0.97524223     0.86700
C54         C  0.73562447  0.10830185  0.94111890    -0.53500
C55         C  0.77744688  0.08068317  0.94382534     0.09600
C56         C  0.81233491  0.09781955  0.98728539     0.20600
C57         C  0.73764832  0.12470817  0.02390066    -0.54200
C58         C  0.77799143  0.09658601  0.03168785     0.09700
C59         C  0.78049419  0.17525401  0.96390051    -0.53800
C60         C  0.82250131  0.15365787  0.97988379     0.10300
H61         H  0.70378969  0.09893304  0.92064657     0.14800
H62         H  0.84562940  0.07560164  0.99137165     0.00600
H63         H  0.70579422  0.12513154  0.04681322     0.15100
H64         H  0.77896190  0.21237429  0.95307974     0.14900
C65         C  0.85591429  0.27661510  0.01958407     0.86700
C66         C  0.89425484  0.27169633  0.05775027    -0.53500
C67         C  0.92486944  0.23279428  0.05243606     0.09600
C68         C  0.91105371  0.19970678  0.00726748     0.20600
C69         C  0.88435016  0.27378959  0.97178816    -0.54200
C70         C  0.91518398  0.23539403  0.96519920     0.09700
C71         C  0.82975287  0.22964437  0.02556491    -0.53800
C72         C  0.85425783  0.18843223  0.01118567     0.10300
H73         H  0.89616681  0.29606091  0.08770288     0.14800
H74         H  0.93453994  0.16745479  0.00305237     0.00600
H75         H  0.87988784  0.30228102  0.94585976     0.15100
H76         H  0.79125132  0.23083100  0.03271449     0.14900
O77         O  0.45465698  0.29445641  0.03490812    -0.71500
O78         O  0.54515226  0.39525328  0.03304589    -0.71800
O79         O  0.44760739  0.39062015  0.03445122    -0.71600
O80         O  0.55223085  0.29932560  0.02874268    -0.71600
O81         O  0.54452875  0.29665210  0.95059769    -0.71600
O82         O  0.44870418  0.39401444  0.95580682    -0.71600
O83         O  0.54658799  0.39343120  0.95431678    -0.71600
O84         O  0.44580456  0.29803549  0.95678016    -0.71700
V85         V  0.49981352  0.34479944  0.03123986     1.35200
V86         V  0.49662795  0.34536336  0.95577575     1.35200
C87         C  0.43277671  0.28094647  0.99738647     0.77700
C88         C  0.56211824  0.41104821  0.99404834     0.77700
C89         C  0.43095258  0.40821090  0.99543017     0.77600
C90         C  0.56626661  0.28256614  0.98802507     0.77600
C91         C  0.13178077  0.27672970  0.98678439     0.86700
C92         C  0.09316335  0.27241132  0.94964438    -0.53500
C93         C  0.07020190  0.22820573  0.94730153     0.09600
C94         C  0.08577201  0.19381883  0.99117419     0.20600
C95         C  0.10201826  0.26847841  0.03252863    -0.54200
C96         C  0.07897774  0.22477351  0.03732989     0.09700
C97         C  0.16289003  0.23243753  0.97648945    -0.53800
C98         C  0.14241410  0.18890870  0.98874415     0.10300
H99         H  0.08404536  0.30367795  0.92843737     0.14800
H100        H  0.06668614  0.15875529  0.99206439     0.00600
H101        H  0.09573776  0.29836141  0.05715123     0.15100
H102        H  0.20156033  0.23639983  0.96978889     0.14900
C103        C  0.26138534  0.16474761  0.03221369     0.86700
C104        C  0.26102402  0.12327791  0.06620028    -0.53500
C105        C  0.22486931  0.08989944  0.05824337     0.09600
C106        C  0.18984236  0.10472973  0.01537344     0.20600
C107        C  0.25998321  0.14235074  0.98121629    -0.54200
C108        C  0.22487807  0.10830504  0.97279835     0.09700
C109        C  0.21119110  0.18503418  0.04342572    -0.53800
C110        C  0.17345540  0.15885445  0.02397046     0.10300
H111        H  0.28660952  0.12310478  0.09582927     0.14800
H112        H  0.15935113  0.07943979  0.00935212     0.00600
H113        H  0.28716500  0.15303580  0.95514450     0.15100
H114        H  0.20584255  0.22131945  0.05678812     0.14900
C115        C  0.14942367  0.75401696  0.02235839     0.86700
C116        C  0.10910937  0.75298911  0.05836160    -0.53500
C117        C  0.07445397  0.78791682  0.05294208     0.09600
C118        C  0.08600344  0.82352560  0.00969988     0.20600
C119        C  0.12491994  0.75583055  0.97225497    -0.54200
C120        C  0.08843501  0.78895413  0.96676587     0.09700
C121        C  0.16930388  0.80433553  0.03211053    -0.53800
C122        C  0.14066841  0.84180866  0.01496663     0.10300
H123        H  0.10966988  0.72633410  0.08672430     0.14800
H124        H  0.05872433  0.85261150  0.00540306     0.00600
H125        H  0.13564055  0.73066122  0.94404509     0.15100
H126        H  0.20704576  0.80950189  0.04016878     0.14900
C127        C  0.25721288  0.86730766  0.97251164     0.86700
C128        C  0.26160308  0.91085800  0.94198833    -0.53500
C129        C  0.22388180  0.94311128  0.94603442     0.09600
C130        C  0.18577393  0.92819526  0.98754455     0.20600
C131        C  0.25211525  0.88732594  0.02460268    -0.54200
C132        C  0.21799432  0.92287726  0.03240372     0.09700
C133        C  0.20672130  0.84890425  0.95718915    -0.53800
C134        C  0.16852368  0.87411760  0.97770165     0.10300
H135        H  0.29351628  0.91445228  0.91949504     0.14800
H136        H  0.15544316  0.95410192  0.99279849     0.00600
H137        H  0.27506006  0.87258467  0.05248515     0.17500
H138        H  0.20107439  0.81239055  0.94545781     0.14900
O139        O  0.27685289  0.46479338  0.95728395    -0.71500
O140        O  0.37692984  0.55797666  0.95674358    -0.71800
O141        O  0.37484409  0.46136669  0.95650513    -0.71600
O142        O  0.27982563  0.56264185  0.96139224    -0.71600
O143        O  0.28189055  0.55928556  0.04001703    -0.71600
O144        O  0.37639503  0.46099084  0.03521191    -0.71600
O145        O  0.37851083  0.55761061  0.03546112    -0.71600
O146        O  0.27868617  0.46164951  0.03564064    -0.71700
V147        V  0.32691847  0.51148367  0.95947864     1.35200
V148        V  0.32862736  0.50983262  0.03501160     1.35200
C149        C  0.26147267  0.44595303  0.99582849     0.77700
C150        C  0.39424662  0.57427016  0.99563000     0.77700
C151        C  0.39234289  0.44480664  0.99559842     0.77600
C152        C  0.26678134  0.57950135  0.00233308     0.77600
O153        O  0.45707171  0.05622574  0.71442096    -0.71500
O154        O  0.55505856  0.04508814  0.61936950    -0.71800
O155        O  0.45764417  0.05157651  0.61752932    -0.71600
O156        O  0.55543537  0.04446770  0.71648375    -0.71600
O157        O  0.54733278  0.96679621  0.71534472    -0.71600
O158        O  0.45015624  0.97389599  0.62024634    -0.71600
O159        O  0.54742946  0.96735113  0.61880623    -0.71600
O160        O  0.44908640  0.97863244  0.71760923    -0.71700
V161        V  0.50607485  0.04785124  0.66721068     1.35200
V162        V  0.49863746  0.97321357  0.66823394     1.35200
C163        C  0.43531256  0.02032497  0.73123453     0.77700
C164        C  0.56778856  0.00496135  0.60250252     0.77700
C165        C  0.43777122  0.01320430  0.60197774     0.77600
C166        C  0.56935509  0.00327256  0.73075718     0.77600
C167        C  0.84949048  0.02127568  0.74136254     0.86700
C168        C  0.89020343  0.05596042  0.73709550    -0.53500
C169        C  0.92439055  0.05429252  0.77337155     0.09600
C170        C  0.91264489  0.01365126  0.81196253     0.20600
C171        C  0.87345192  0.97164491  0.74742404    -0.54200
C172        C  0.91053105  0.96852812  0.78043295     0.09700
C173        C  0.83004306  0.03668410  0.79099196    -0.53800
C174        C  0.85751213  0.02009194  0.82936156     0.10300
H175        H  0.88839664  0.08146706  0.70797131     0.14800
H176        H  0.93935383  0.01122113  0.84187769     0.00600
H177        H  0.86161359  0.94176866  0.72506034     0.15100
H178        H  0.79282214  0.04752746  0.79607235     0.14900
C179        C  0.73919975  0.97943987  0.85523153     0.86700
C180        C  0.73579531  0.94843738  0.89869712    -0.53500
C181        C  0.77518822  0.95030981  0.92910237     0.09600
C182        C  0.81239816  0.99182084  0.91474758     0.20600
C183        C  0.74584272  0.03056333  0.87539535    -0.54200
C184        C  0.77997397  0.03677502  0.91098614     0.09700
C185        C  0.78900477  0.96424970  0.83457580    -0.53800
C186        C  0.82833759  0.98287396  0.86002427     0.10300
H187        H  0.70375874  0.92656730  0.90334330     0.14800
H188        H  0.84327542  0.99614752  0.94014664     0.00600
H189        H  0.72443611  0.05972272  0.86073959     0.15100
H190        H  0.79270869  0.95427079  0.79693692     0.14900
O191        O  0.71405230  0.94814742  0.45219860    -0.71500
O192        O  0.61774472  0.96194106  0.54841715    -0.71800
O193        O  0.61786648  0.96049768  0.45144031    -0.71600
O194        O  0.71438065  0.95493271  0.55131176    -0.71600
O195        O  0.72273450  0.03229711  0.54489548    -0.71600
O196        O  0.62496561  0.03830469  0.45053330    -0.71600
O197        O  0.62583137  0.03962211  0.54777452    -0.71600
O198        O  0.72130459  0.02563986  0.44628157    -0.71700
V199        V  0.66648943  0.95785894  0.50068990     1.35200
V200        V  0.67386682  0.03243581  0.49748573     1.35200
C201        C  0.73191163  0.98369021  0.43073070     0.77700
C202        C  0.60532125  0.00234172  0.56473718     0.77700
C203        C  0.60490536  0.00103444  0.43469094     0.77600
C204        C  0.73292679  0.99402179  0.56651265     0.77600
C205        C  0.15769656  0.99079227  0.74479774     0.86700
C206        C  0.11765336  0.95524160  0.74145127    -0.53500
C207        C  0.08260018  0.95823673  0.77707264     0.09600
C208        C  0.09313314  0.00102829  0.81432492     0.20600
C209        C  0.13299407  0.04029457  0.74892805    -0.54200
C210        C  0.09533263  0.04472967  0.78131413     0.09700
C211        C  0.17677010  0.97836157  0.79513467    -0.53800
C212        C  0.14819256  0.99638833  0.83255212     0.10300
H213        H  0.12052141  0.92842413  0.71333452     0.14800
H214        H  0.06580288  0.00460517  0.84379717     0.00600
H215        H  0.14572608  0.06939059  0.72639902     0.15100
H216        H  0.21444979  0.96941450  0.80088831     0.14900
C217        C  0.26506050  0.04442956  0.85702450     0.86700
C218        C  0.26560342  0.07864219  0.89845931    -0.53500
C219        C  0.22680613  0.07504649  0.92963836     0.09600
C220        C  0.19167894  0.03118727  0.91647788     0.20600
C221        C  0.26185414  0.99442093  0.88063717    -0.54200
C222        C  0.22597162  0.98781850  0.91487679     0.09700
C223        C  0.21470287  0.05486118  0.83547337    -0.53800
C224        C  0.17608791  0.03606898  0.86159333     0.10300
H225        H  0.29551938  0.10348073  0.90123966     0.14800
H226        H  0.16056868  0.02666755  0.94165563     0.00600
H227        H  0.28690784  0.96676600  0.86891123     0.15100
H228        H  0.21071369  0.06239446  0.79756904     0.14900
O229        O  0.28576625  0.97896347  0.54783338    -0.71500
O230        O  0.37948035  0.97611763  0.44864125    -0.71800
O231        O  0.38248264  0.97569136  0.54615012    -0.71600
O232        O  0.28215401  0.98500896  0.44950119    -0.71600
O233        O  0.28854228  0.06271202  0.45393041    -0.71600
O234        O  0.38609728  0.05370043  0.54849155    -0.71600
O235        O  0.38542493  0.05397713  0.45142616    -0.71600
O236        O  0.28940477  0.05687310  0.55290953    -0.71700
V237        V  0.33233718  0.98048183  0.49804335     1.35200
V238        V  0.33695123  0.05531179  0.50145871     1.35200
C239        C  0.27375658  0.01714352  0.56925758     0.77700
C240        C  0.39901066  0.01381120  0.43350393     0.77700
C241        C  0.40076595  0.01396229  0.56388217     0.77600
C242        C  0.26998713  0.02636982  0.43407403     0.77600
C243        C  0.26503807  0.98853742  0.14471178     0.86700
C244        C  0.25900361  0.94975991  0.10762614    -0.53500
C245        C  0.21954614  0.95507934  0.07726451     0.09600
C246        C  0.18872370  0.00300012  0.08961715     0.20600
C247        C  0.26666781  0.03325666  0.11342636    -0.54200
C248        C  0.22673362  0.04346510  0.08612007     0.09700
C249        C  0.21699182  0.98714788  0.17120977    -0.53800
C250        C  0.17673930  0.00229058  0.14566385     0.10300
H251        H  0.28754172  0.92390836  0.10289957     0.14800
H252        H  0.15640207  0.00853575  0.06634918     0.00600
H253        H  0.30050598  0.05279412  0.11126349     0.15100
H254        H  0.21725353  0.98321075  0.21034904     0.14900
C255        C  0.14548117  0.04265360  0.26329566     0.86700
C256        C  0.09952785  0.07115287  0.26479306    -0.53500
C257        C  0.06993525  0.06614447  0.22496591     0.09600
C258        C  0.08850292  0.02487362  0.18916511     0.20600
C259        C  0.12911214  0.99026271  0.25720602    -0.54200
C260        C  0.09479403  0.98111228  0.22242143     0.09700
C261        C  0.16659618  0.05724506  0.21391969    -0.53800
C262        C  0.14296863  0.03715741  0.17447565     0.10300
H263        H  0.09226750  0.09336209  0.29628565     0.14800
H264        H  0.06415603  0.01818661  0.15789128     0.00600
H265        H  0.14470997  0.96293678  0.28008756     0.15100
H266        H  0.20362145  0.06911212  0.21046390     0.14900
C267        C  0.74422692  0.03618613  0.15086390     0.86700
C268        C  0.74575610  0.07267873  0.11183876    -0.53500
C269        C  0.78060334  0.06535491  0.07659258     0.09600
C270        C  0.81316354  0.01893811  0.08712763     0.20600
C271        C  0.74209136  0.98708466  0.12480177    -0.54200
C272        C  0.77584175  0.97837313  0.08931481     0.09700
C273        C  0.79567914  0.04207928  0.17060689    -0.53800
C274        C  0.83163308  0.02217688  0.14168743     0.10300
H275        H  0.72138776  0.10309208  0.11473119     0.14800
H276        H  0.84252333  0.01268229  0.06016276     0.00600
H277        H  0.71486185  0.96140000  0.13567348     0.15100
H278        H  0.80255150  0.04990213  0.20812582     0.14900
C279        C  0.85077631  0.96531986  0.25586849     0.86700
C280        C  0.89188032  0.93055735  0.25231443    -0.53500
C281        C  0.92700854  0.94134081  0.21854992     0.09600
C282        C  0.91349904  0.98684664  0.18735681     0.20600
C283        C  0.87424888  0.01557759  0.25920713    -0.54200
C284        C  0.90941238  0.02600547  0.22576556     0.09700
C285        C  0.83046008  0.96074751  0.20455250    -0.53800
C286        C  0.85910287  0.98169812  0.16886292     0.10300
H287        H  0.89199132  0.89958149  0.27581302     0.14800
H288        H  0.94015021  0.99468495  0.15828530     0.00600
H289        H  0.86222688  0.04067539  0.28685150     0.15100
H290        H  0.79231564  0.95424082  0.19867088     0.14900
O291        O  0.45890286  0.96870201  0.28066193    -0.71500
O292        O  0.54766449  0.96716174  0.38270693    -0.71800
O293        O  0.45054385  0.97092142  0.37736532    -0.71600
O294        O  0.55700877  0.97073103  0.28644075    -0.71600
O295        O  0.54926971  0.04838661  0.28249133    -0.71600
O296        O  0.45736861  0.04857590  0.38295890    -0.71600
O297        O  0.55470889  0.04489276  0.37936309    -0.71600
O298        O  0.45096414  0.04604457  0.28647856    -0.71700
V299        V  0.50342697  0.97076300  0.33160637     1.35200
V300        V  0.50318250  0.04560706  0.33260462     1.35200
C301        C  0.43690542  0.00622828  0.26837500     0.77700
C302        C  0.56758399  0.00486187  0.39750970     0.77700
C303        C  0.43703908  0.01068957  0.39637517     0.77600
C304        C  0.57130174  0.01080729  0.26973348     0.77600
O305        O  0.04284144  0.45529821  0.71341055    -0.71500
O306        O  0.04653116  0.55332393  0.61718801    -0.71800
O307        O  0.04782835  0.55308955  0.71410242    -0.71600
O308        O  0.04561337  0.45698574  0.61653162    -0.71600
O309        O  0.96658374  0.45917588  0.61655279    -0.71600
O310        O  0.96891916  0.55732135  0.71503270    -0.71600
O311        O  0.96745774  0.55557711  0.61766769    -0.71600
O312        O  0.96406783  0.46008210  0.71344347    -0.71700
V313        V  0.04417476  0.50483483  0.66563626     1.35200
V314        V  0.96830765  0.50794012  0.66583292     1.35200
C315        C  0.00205851  0.43967166  0.72822908     0.77700
C316        C  0.00707391  0.57045049  0.60074407     0.77700
C317        C  0.00962601  0.57302921  0.72989546     0.77600
C318        C  0.00607554  0.44173088  0.59973080     0.77600
C319        C  0.98770919  0.86610384  0.72924596     0.86700
C320        C  0.94870088  0.90317853  0.73321600    -0.53500
C321        C  0.94921119  0.93024764  0.77513750     0.09600
C322        C  0.99554117  0.91897770  0.80822585     0.20600
C323        C  0.03336103  0.89655177  0.73252608    -0.54200
C324        C  0.03906856  0.92496288  0.77307291     0.09700
C325        C  0.98197804  0.83890634  0.77598725    -0.53800
C326        C  0.99467233  0.86321478  0.81794691     0.10300
H327        H  0.92620171  0.91103243  0.70259469     0.14800
H328        H  0.99785110  0.94133969  0.84156202     0.00600
H329        H  0.05628216  0.89714436  0.70093902     0.15100
H330        H  0.97657744  0.80023668  0.77416887     0.14900
C331        C  0.02357605  0.74615939  0.85308780     0.86700
C332        C  0.05191388  0.74299283  0.89913024    -0.53500
C333        C  0.05195218  0.78440977  0.92659653     0.09600
C334        C  0.01363621  0.82295045  0.90812788     0.20600
C335        C  0.97119682  0.75857194  0.86929857    -0.54200
C336        C  0.96607179  0.79412683  0.90419277     0.09700
C337        C  0.04420728  0.79254924  0.83146108    -0.53800
C338        C  0.02703957  0.83400676  0.85325157     0.10300
H339        H  0.07208391  0.71057409  0.90723611     0.14800
H340        H  0.01052296  0.85563235  0.93118521     0.00600
H341        H  0.94093090  0.73858597  0.85446189     0.15100
H342        H  0.05802419  0.79377815  0.79505695     0.14900
O343        O  0.05352718  0.71766768  0.45211687    -0.71500
O344        O  0.04699781  0.62023003  0.54534694    -0.71800
O345        O  0.04737522  0.62151770  0.44804244    -0.71600
O346        O  0.04820824  0.71631232  0.54959346    -0.71600
O347        O  0.96974900  0.72088817  0.54300774    -0.71600
O348        O  0.96829273  0.62296965  0.44929689    -0.71600
O349        O  0.96803905  0.62497596  0.54655300    -0.71600
O350        O  0.97490565  0.71876985  0.44594748    -0.71700
V351        V  0.04756139  0.66899586  0.49864883     1.35200
V352        V  0.97178112  0.67191280  0.49630980     1.35200
C353        C  0.01615463  0.73402467  0.43188945     0.77700
C354        C  0.00712843  0.60666718  0.56270404     0.77700
C355        C  0.00696389  0.60615371  0.43185719     0.77600
C356        C  0.00802520  0.73462193  0.56349680     0.77600
C357        C  0.97563736  0.74467072  0.14351401     0.86700
C358        C  0.93266623  0.75907412  0.11350964    -0.53500
C359        C  0.94138394  0.79572714  0.08106864     0.09600
C360        C  0.99129554  0.82283878  0.09242139     0.20600
C361        C  0.01852263  0.74255614  0.10778320    -0.54200
C362        C  0.02904238  0.78378765  0.08288714     0.09700
C363        C  0.98059630  0.78934917  0.17304603    -0.53800
C364        C  0.99474484  0.83041910  0.14939780     0.10300
H365        H  0.89856253  0.74018450  0.11537813     0.14800
H366        H  0.99687922  0.85625842  0.07147554     0.00600
H367        H  0.03801528  0.70900012  0.10284350     0.15100
H368        H  0.97861359  0.78604083  0.21183837     0.14900
C369        C  0.03460052  0.86611704  0.26780736     0.86700
C370        C  0.06855283  0.90770825  0.26593423    -0.53500
C371        C  0.06415338  0.93599555  0.22493737     0.09600
C372        C  0.02056212  0.91845128  0.19025985     0.20600
C373        C  0.98571313  0.89171545  0.26474899    -0.54200
C374        C  0.97607673  0.91761490  0.22414405     0.09700
C375        C  0.04632018  0.84122896  0.22006732    -0.53800
C376        C  0.02890325  0.86335329  0.17917340     0.10300
H377        H  0.09079797  0.91555206  0.29695449     0.14800
H378        H  0.01525898  0.94057353  0.15741925     0.00600
H379        H  0.96321227  0.89299092  0.29695911     0.15100
H380        H  0.05745375  0.80385276  0.22040845     0.14900
O381        O  0.04284473  0.46061071  0.27675190    -0.71500
O382        O  0.04321763  0.55211270  0.37714119    -0.71800
O383        O  0.04265129  0.45595315  0.37386834    -0.71600
O384        O  0.03802907  0.55778333  0.28037200    -0.71600
O385        O  0.95956723  0.55053465  0.27908555    -0.71600
O386        O  0.96378115  0.45918387  0.37880659    -0.71600
O387        O  0.96418419  0.55519767  0.37635376    -0.71600
O388        O  0.96450421  0.45322554  0.28209716    -0.71700
V389        V  0.04020329  0.50653599  0.32684888     1.35200
V390        V  0.96445834  0.50468713  0.32880333     1.35200
C391        C  0.00485181  0.43887125  0.26433648     0.77700
C392        C  0.00447867  0.56971430  0.39360026     0.77700
C393        C  0.00317701  0.44136161  0.39297722     0.77600
C394        C  0.99701521  0.57186551  0.26430637     0.77600
C395        C  0.01975299  0.14543373  0.72651876     0.86700
C396        C  0.05953557  0.10977669  0.73293145    -0.53500
C397        C  0.05743308  0.08360627  0.77511354     0.09600
C398        C  0.00949428  0.09520012  0.80637890     0.20600
C399        C  0.97492235  0.11392880  0.72852388    -0.54200
C400        C  0.96784726  0.08725026  0.76963807     0.09700
C401        C  0.02207353  0.17415853  0.77277900    -0.53800
C402        C  0.00864776  0.15129241  0.81504933     0.10300
H403        H  0.08346196  0.10192039  0.70314650     0.14800
H404        H  0.00600687  0.07385469  0.83998274     0.00600
H405        H  0.95348068  0.11149026  0.69602868     0.15100
H406        H  0.02658866  0.21252409  0.76981696     0.14900
C407        C  0.98515541  0.26806657  0.84958277     0.86700
C408        C  0.95546520  0.27488633  0.89508341    -0.53500
C409        C  0.95108666  0.23452636  0.92344406     0.09600
C410        C  0.98717906  0.19300273  0.90595230     0.20600
C411        C  0.03561109  0.25385356  0.86936430    -0.54200
C412        C  0.03635930  0.21931966  0.90466958     0.09700
C413        C  0.96135985  0.22358483  0.82821082    -0.53800
C414        C  0.97593433  0.18170802  0.85005678     0.10300
H415        H  0.94074319  0.30978725  0.90399220     0.14800
H416        H  0.98735071  0.16057146  0.92908606     0.00600
H417        H  0.06736051  0.27505933  0.86128139     0.15100
H418        H  0.94781367  0.22470179  0.79135886     0.14900
C419        C  0.96268592  0.14570357  0.26633988     0.86700
C420        C  0.93603370  0.09917282  0.26987226    -0.53500
C421        C  0.94022286  0.07017461  0.22950339     0.09600
C422        C  0.97896686  0.08945009  0.19152146     0.20600
C423        C  0.01608769  0.13128535  0.25729226    -0.54200
C424        C  0.02450752  0.09690946  0.22262833     0.09700
C425        C  0.94321952  0.16487803  0.21771198    -0.53800
C426        C  0.96344371  0.14258977  0.17753080     0.10300
H427        H  0.91478200  0.09163076  0.30192398     0.14800
H428        H  0.98519052  0.06562908  0.15974007     0.00600
H429        H  0.04479021  0.14766738  0.27834315     0.15100
H430        H  0.92836624  0.20055054  0.21446424     0.14900
C431        C  0.02295037  0.26178353  0.14997825     0.86700
C432        C  0.06620632  0.24451291  0.12140490    -0.53500
C433        C  0.05539544  0.21159134  0.08553501     0.09600
C434        C  0.00296434  0.18792779  0.09361912     0.20600
C435        C  0.98187826  0.26908353  0.11327146    -0.54200
C436        C  0.96866668  0.23035705  0.08535083     0.09700
C437        C  0.01259382  0.21689930  0.17698875    -0.53800
C438        C  0.99720074  0.17777716  0.15011308     0.10300
H439        H  0.10177558  0.26062881  0.12503890     0.14800
H440        H  0.99555962  0.15617853  0.07028181     0.00600
H441        H  0.96644984  0.30468218  0.10962313     0.15100
H442        H  0.01338888  0.21838201  0.21629018     0.14900
O443        O  0.04186127  0.29069730  0.54117253    -0.71500
O444        O  0.04103176  0.38542573  0.44460487    -0.71800
O445        O  0.04423337  0.38726996  0.54240862    -0.71600
O446        O  0.03366779  0.28886437  0.44380447    -0.71600
O447        O  0.95508779  0.29567404  0.44929939    -0.71600
O448        O  0.96534215  0.38906609  0.54723691    -0.71600
O449        O  0.96232871  0.39121897  0.45006035    -0.71600
O450        O  0.96318208  0.29288820  0.54663487    -0.71700
V451        V  0.03873993  0.33809963  0.49314282     1.35200
V452        V  0.96308572  0.34203245  0.49818584     1.35200
C453        C  0.00357506  0.27569636  0.56088875     0.77700
C454        C  0.00210104  0.40456428  0.43075765     0.77700
C455        C  0.00564187  0.40452440  0.56158782     0.77600
C456        C  0.99151544  0.27674766  0.42922861     0.77600
C457        C  0.93786496  0.22250321  0.31527866     0.23800
C458        C  0.96065548  0.17706376  0.31280562    -0.24300
C459        C  0.98874173  0.16281054  0.35354500     0.18700
C460        C  0.00149362  0.19589480  0.38982474     0.23800
C461        C  0.98281210  0.24264012  0.38894692    -0.24200
C462        C  0.94907949  0.25481363  0.35273448     0.18700
F463        F  0.92695185  0.29853443  0.35348892    -0.14200
F464        F  0.90249880  0.23517164  0.28382563    -0.16500
F465        F  0.03121091  0.18190404  0.42634168    -0.16500
F466        F  0.00658932  0.11733304  0.35664069    -0.14200
C467        C  0.96913804  0.23487197  0.63384004     0.23800
C468        C  0.00737762  0.24040000  0.60082085    -0.24300
C469        C  0.05124536  0.21512196  0.60892493     0.18700
C470        C  0.05664807  0.18499547  0.64904711     0.23800
C471        C  0.01776789  0.17846028  0.68192632    -0.24200
C472        C  0.97443865  0.20516419  0.67396688     0.18700
F473        F  0.93637772  0.20244450  0.70526323    -0.14200
F474        F  0.92682922  0.25952847  0.62839506    -0.16500
F475        F  0.10104941  0.16512665  0.65634078    -0.16500
F476        F  0.08970096  0.22000238  0.57833671    -0.14200
C477        C  0.05913656  0.34299416  0.18079930     0.23800
C478        C  0.02340970  0.30674725  0.18273240    -0.24300
C479        C  0.98042931  0.31669308  0.20975437     0.18700
C480        C  0.97365221  0.35999607  0.23442745     0.23800
C481        C  0.00939710  0.39551263  0.23305035    -0.24200
C482        C  0.05219587  0.38664790  0.20581394     0.18700
F483        F  0.08719458  0.42080467  0.20239617    -0.14200
F484        F  0.09964628  0.33813948  0.15314448    -0.16500
F485        F  0.93188794  0.36677663  0.26003658    -0.16500
F486        F  0.94276001  0.28545712  0.20951605    -0.14200
C487        C  0.02182746  0.68955075  0.20029957     0.23800
C488        C  0.97757227  0.69918067  0.17554048    -0.24300
C489        C  0.94006963  0.66488983  0.17979721     0.18700
C490        C  0.94700299  0.62299821  0.20730411     0.23800
C491        C  0.99146319  0.61387824  0.23135444    -0.24200
C492        C  0.02871252  0.64772811  0.22712633     0.18700
F493        F  0.07194941  0.64104016  0.24979247    -0.14200
F494        F  0.05988695  0.72030075  0.19726560    -0.16500
F495        F  0.90983070  0.59110783  0.21008062    -0.16500
F496        F  0.89646748  0.67100617  0.15803961    -0.14200
C497        C  0.98955247  0.80327510  0.31815961     0.23800
C498        C  0.03269178  0.83066962  0.31062041    -0.24300
C499        C  0.07127979  0.82380923  0.34335663     0.18700
C500        C  0.06576296  0.79305217  0.38321239     0.23800
C501        C  0.02156370  0.76845452  0.39146556    -0.24200
C502        C  0.98381122  0.77403394  0.35833424     0.18700
F503        F  0.94104929  0.75034986  0.36404912    -0.14200
F504        F  0.95096509  0.80594587  0.28779397    -0.16500
F505        F  0.10393834  0.78743784  0.41375584    -0.16500
F506        F  0.11503913  0.84497758  0.33624047    -0.14200
C507        C  0.95379167  0.82658506  0.65040421     0.23800
C508        C  0.99098275  0.83199016  0.68512241    -0.24300
C509        C  0.03397532  0.80407483  0.67872534     0.18700
C510        C  0.04031620  0.77376452  0.63870345     0.23800
C511        C  0.00388345  0.76987934  0.60372477    -0.24200
C512        C  0.96060707  0.79670685  0.61001452     0.18700
F513        F  0.92396894  0.79363042  0.57724734    -0.14200
F514        F  0.90958499  0.84758394  0.65580796    -0.16500
F515        F  0.08175177  0.74724465  0.63506579    -0.16500
F516        F  0.07104078  0.80684681  0.71086947    -0.14200
C517        C  0.99605346  0.65910952  0.83714352     0.23800
C518        C  0.02473254  0.69899272  0.82247481    -0.24300
C519        C  0.05204982  0.69333482  0.77918610     0.18700
C520        C  0.04625154  0.65264305  0.74954294     0.23800
C521        C  0.01400654  0.61569087  0.76223646    -0.24200
C522        C  0.98951824  0.61889893  0.80670192     0.18700
F523        F  0.96036900  0.58246436  0.82139163    -0.14200
F524        F  0.97383308  0.65902401  0.88115776    -0.16500
F525        F  0.07226487  0.64953639  0.70769307    -0.16500
F526        F  0.08718703  0.72475134  0.76639162    -0.14200
C527        C  0.95397111  0.38655842  0.78408802     0.23800
C528        C  0.99775079  0.39670514  0.75942507    -0.24300
C529        C  0.03486070  0.36217977  0.75962649     0.18700
C530        C  0.02958066  0.31970712  0.78560820     0.23800
C531        C  0.98768104  0.31122174  0.81471828    -0.24200
C532        C  0.94870117  0.34413934  0.81064504     0.18700
F533        F  0.90471514  0.33495208  0.83099796    -0.14200
F534        F  0.91576550  0.41755395  0.78232482    -0.16500
F535        F  0.06566027  0.28671542  0.78043738    -0.16500
F536        F  0.07579048  0.36830420  0.73269083    -0.14200
C537        C  0.61180608  0.01970743  0.18947858     0.23800
C538        C  0.61518697  0.01621778  0.23979187    -0.24300
C539        C  0.65893237  0.02885633  0.26247112     0.18700
C540        C  0.70051900  0.03977237  0.23524772     0.23800
C541        C  0.69890577  0.03918149  0.18397860    -0.24200
C542        C  0.65277628  0.03173132  0.16193657     0.18700
F543        F  0.64817592  0.03255034  0.11294033    -0.14200
F544        F  0.56870811  0.01168060  0.16696543    -0.16500
F545        F  0.74129678  0.05091364  0.26008286    -0.16500
F546        F  0.66095291  0.03191578  0.31153939    -0.14200
C547        C  0.34029786  0.95083082  0.18704834     0.23800
C548        C  0.30858351  0.98986370  0.17960087    -0.24300
C549        C  0.31888854  0.03366881  0.20438943     0.18700
C550        C  0.36102177  0.03949520  0.23161446     0.23800
C551        C  0.39407074  0.00157460  0.23619079    -0.24200
C552        C  0.38280650  0.95686727  0.21417272     0.18700
F553        F  0.41259414  0.91822453  0.21931316    -0.14200
F554        F  0.32966795  0.90605138  0.17073195    -0.16500
F555        F  0.36891692  0.08238830  0.25398586    -0.16500
F556        F  0.28928835  0.07246229  0.20033743    -0.14200
C557        C  0.22169958  0.06983869  0.31309895     0.23800
C558        C  0.17588038  0.04718852  0.31035434    -0.24300
C559        C  0.15883101  0.02398083  0.35292109     0.18700
C560        C  0.18977170  0.01541022  0.39223405     0.23800
C561        C  0.23707479  0.03360946  0.39226088    -0.24200
C562        C  0.25171062  0.06317187  0.35363028     0.18700
F563        F  0.29566876  0.08529847  0.35484013    -0.14200
F564        F  0.23676983  0.10081872  0.27863460    -0.16500
F565        F  0.17310279  0.99018889  0.43075937    -0.16500
F566        F  0.11245045  0.00746014  0.35558715    -0.14200
C567        C  0.19472196  0.01648493  0.61341176     0.23800
C568        C  0.24528842  0.01303175  0.61431725    -0.24300
C569        C  0.26809285  0.99581848  0.65634944     0.18700
C570        C  0.24113305  0.98588582  0.69842194     0.23800
C571        C  0.19003473  0.99173676  0.69885594    -0.24200
C572        C  0.16739888  0.00520240  0.65458555     0.18700
F573        F  0.11823640  0.00955048  0.65177775    -0.14200
F574        F  0.17161744  0.02968693  0.57216573    -0.16500
F575        F  0.26571860  0.96998136  0.73754841    -0.16500
F576        F  0.31681314  0.98756152  0.65622427    -0.14200
C577        C  0.74083203  0.95626577  0.34452930     0.23800
C578        C  0.76203527  0.97509777  0.38696814    -0.24300
C579        C  0.81241746  0.98038905  0.38858521     0.18700
C580        C  0.84077759  0.97052332  0.34744910     0.23800
C581        C  0.81909227  0.95907136  0.30200814    -0.24200
C582        C  0.76865577  0.94917371  0.30212266     0.18700
F583        F  0.74576667  0.93195736  0.26230437    -0.14200
F584        F  0.69275448  0.94519637  0.34402675    -0.16500
F585        F  0.88971607  0.97614242  0.35108488    -0.16500
F586        F  0.83429787  0.99483037  0.43022139    -0.14200
C587        C  0.81233837  0.99349489  0.61003108     0.23800
C588        C  0.76176382  0.99760678  0.61124655    -0.24300
C589        C  0.73910378  0.01486587  0.65364871     0.18700
C590        C  0.76615706  0.02531030  0.69540635     0.23800
C591        C  0.81724561  0.01902776  0.69559046    -0.24200
C592        C  0.83975831  0.00432956  0.65132172     0.18700
F593        F  0.88883812  0.99896995  0.64843235    -0.14200
F594        F  0.83533544  0.97991546  0.56849898    -0.16500
F595        F  0.74149573  0.04215931  0.73444856    -0.16500
F596        F  0.69034795  0.02290699  0.65414011    -0.14200
C597        C  0.65006894  0.96579402  0.74709096     0.23800
C598        C  0.61173774  0.99594580  0.76257286    -0.24300
C599        C  0.61157347  0.01298922  0.81021282     0.18700
C600        C  0.65036193  0.00227676  0.84105748     0.23800
C601        C  0.69278033  0.97813562  0.82366047    -0.24200
C602        C  0.69039057  0.95724234  0.77691436     0.18700
F603        F  0.72523331  0.92677832  0.76023239    -0.14200
F604        F  0.64853800  0.94462954  0.70261925    -0.16500
F605        F  0.64720537  0.01735638  0.88789484    -0.16500
F606        F  0.57309631  0.03872416  0.82740498    -0.14200
C607        C  0.39527154  0.01775768  0.81290665     0.23800
C608        C  0.39311136  0.02862149  0.76362106    -0.24300
C609        C  0.35244384  0.05382588  0.74624718     0.18700
C610        C  0.31186363  0.06264130  0.77604291     0.23800
C611        C  0.31132174  0.04682933  0.82471092    -0.24200
C612        C  0.35575132  0.02846944  0.84344099     0.18700
F613        F  0.36024347  0.01889894  0.89141788    -0.14200
F614        F  0.43612178  0.99784212  0.83176015    -0.16500
F615        F  0.27495574  0.08865152  0.75705735    -0.16500
F616        F  0.35201734  0.07005572  0.69995691    -0.14200
C617        C  0.18721251  0.62272185  0.00164040     0.23800
C618        C  0.23754272  0.62368624  0.00754963    -0.24300
C619        C  0.25956446  0.66586611  0.02503497     0.18700
C620        C  0.23224219  0.70792560  0.03288432     0.23800
C621        C  0.18156498  0.70838114  0.02402505    -0.24200
C622        C  0.15941628  0.66393245  0.01110344     0.18700
F623        F  0.11041791  0.66089862  0.00551182    -0.14200
F624        F  0.16480171  0.58158814  0.98740699    -0.16500
F625        F  0.25603943  0.74682157  0.05028066    -0.16500
F626        F  0.30799249  0.66626061  0.03464690    -0.14200
C627        C  0.18217090  0.34030768  0.03355163     0.23800
C628        C  0.16249013  0.32342073  0.98895083    -0.24300
C629        C  0.17785103  0.34695577  0.94642749     0.18700
C630        C  0.20853828  0.38733562  0.94870324     0.23800
C631        C  0.22578993  0.40526481  0.99357291    -0.24200
C632        C  0.21182745  0.38110646  0.03581846     0.18700
F633        F  0.22882293  0.39538713  0.07973608    -0.14200
F634        F  0.17647537  0.31536864  0.07524166    -0.16500
F635        F  0.22251309  0.40784852  0.90642108    -0.16500
F636        F  0.16517764  0.32970375  0.90213561    -0.14200
C637        C  0.35331940  0.17614219  0.03198935     0.23800
C638        C  0.30637525  0.19771890  0.03399469    -0.24300
C639        C  0.30319368  0.24698243  0.02154591     0.18700
C640        C  0.34410061  0.27251414  0.00625978     0.23800
C641        C  0.38974730  0.25039340  0.00358804    -0.24200
C642        C  0.39439822  0.20245641  0.01790999     0.18700
F643        F  0.43872674  0.18077795  0.01733602    -0.14200
F644        F  0.35928720  0.12855782  0.04082894    -0.16500
F645        F  0.33924348  0.31975222  0.99502202    -0.16500
F646        F  0.26072095  0.27126601  0.02270853    -0.14200
C647        C  0.61555036  0.22038176  0.94148953     0.23800
C648        C  0.60803705  0.24862319  0.98362148    -0.24300
C649        C  0.64255888  0.24627687  0.02060126     0.18700
C650        C  0.68221672  0.21515592  0.01695233     0.23800
C651        C  0.68933661  0.18477523  0.97584257    -0.24200
C652        C  0.65586391  0.18929167  0.93734488     0.18700
F653        F  0.66252991  0.16560468  0.89474775    -0.14200
F654        F  0.58390713  0.22282315  0.90391751    -0.16500
F655        F  0.71273278  0.21391814  0.05538435    -0.16500
F656        F  0.63870630  0.27501759  0.06042714    -0.14200
C657        C  0.79083935  0.39904330  0.04754226     0.23800
C658        C  0.76267651  0.40501586  0.00543644    -0.24300
C659        C  0.76312910  0.36843642  0.97051717     0.18700
C660        C  0.79092495  0.32693804  0.97728223     0.23800
C661        C  0.82113958  0.32084502  0.01858310    -0.24200
C662        C  0.81948941  0.35779527  0.05426110     0.18700
F663        F  0.84366170  0.35474213  0.09670963    -0.14200
F664        F  0.79084614  0.43343571  0.08273282    -0.16500
F665        F  0.78976130  0.29351422  0.94142859    -0.16500
F666        F  0.73564312  0.37212805  0.92991546    -0.14200
C667        C  0.81843016  0.66866111  0.94076375     0.23800
C668        C  0.82709783  0.69963529  0.98047842    -0.24300
C669        C  0.80284270  0.68936881  0.02478026     0.18700
C670        C  0.77338221  0.64902762  0.02986540     0.23800
C671        C  0.76574420  0.61786017  0.99066748    -0.24200
C672        C  0.78894594  0.62799180  0.94609520     0.18700
F673        F  0.78260756  0.59890142  0.90692160    -0.14200
F674        F  0.83568400  0.67847679  0.89586559    -0.16500
F675        F  0.75137716  0.64135548  0.07323307    -0.16500
F676        F  0.80808188  0.71813377  0.06429458    -0.14200
C677        C  0.34278820  0.75596131  0.96012501     0.23800
C678        C  0.38404820  0.77255285  0.98494596    -0.24300
C679        C  0.38633426  0.82087968  0.99860621     0.18700
C680        C  0.34687302  0.85158205  0.99000329     0.23800
C681        C  0.30259645  0.83412009  0.96999396    -0.24200
C682        C  0.30240952  0.78597328  0.95288019     0.18700
F683        F  0.26471156  0.76728456  0.92775044    -0.14200
F684        F  0.34144973  0.71010038  0.94297029    -0.16500
F685        F  0.35128869  0.89846961  0.00332809    -0.16500
F686        F  0.42731515  0.83869819  0.01924404    -0.14200
C687        C  0.60358960  0.82225360  0.99843605     0.23800
C688        C  0.60451189  0.77292476  0.00764673    -0.24300
C689        C  0.64526106  0.75329839  0.03090739     0.18700
C690        C  0.68590113  0.78156253  0.04191387     0.23800
C691        C  0.68756009  0.83060050  0.02874055    -0.24200
C692        C  0.64408392  0.85090288  0.00966960     0.18700
F693        F  0.64152259  0.89862691  0.99992902    -0.14200
F694        F  0.56318620  0.84289544  0.97942722    -0.16500
F695        F  0.72162569  0.76056052  0.06772667    -0.16500
F696        F  0.64551640  0.70617764  0.04353160    -0.14200
loop_ 
_geom_bond_atom_site_label_1 
_geom_bond_atom_site_label_2 
_geom_bond_distance 
_geom_bond_site_symmetry_2 
_ccdc_geom_bond_type 
O1            V9   1.883       .  S
O1           C11   1.257       .  A
O2            V9   1.882       .  S
O2           C12   1.255       .  A
O3            V9   1.922       .  S
O3           C13   1.273       .  A
O4            V9   1.930       .  S
O4           C14   1.273   1_556  A
O5           V10   1.880       .  S
O5           C14   1.257       .  A
O6           V10   1.882       .  S
O6           C13   1.256   1_554  A
O7           V10   1.919       .  S
O7           C12   1.273   1_554  A
O8           V10   1.925       .  S
O8           C11   1.272   1_554  A
V9           V10   2.088   1_556  T
C11         C678   1.476       .  S
C12          C50   1.467       .  S
C13         C150   1.469       .  S
C14         C688   1.478       .  S
C15          C16   1.481       .  S
C15          C21   1.513       .  S
C15          C19   1.519   1_556  S
C15         C668   1.543       .  S
C16          H23   1.072       .  S
C16          C17   1.380       .  D
C17          C18   1.624       .  S
C17         C336   1.532       .  S
C18          C22   1.581       .  S
C18          C20   1.548   1_556  S
C18          H24   1.110       .  S
C19          H25   1.083       .  S
C19          C20   1.372       .  D
C20         C359   1.529       .  S
C21          H26   1.088       .  S
C21          C22   1.381       .  D
C22          C34   1.558   1_556  S
C27          C28   1.497       .  S
C27          C33   1.535       .  S
C27          C31   1.537   1_554  S
C27         C691   1.555       .  S
C28          H35   1.079       .  S
C28          C29   1.379       .  D
C29          C30   1.589       .  S
C29         C272   1.510       .  S
C30          C34   1.586       .  S
C30          C32   1.528   1_554  S
C30          H36   1.108       .  S
C31          H37   1.081       .  S
C31          C32   1.373       .  D
C32         C181   1.508       .  S
C33          H38   1.073       .  S
C33          C34   1.381       .  D
O39          V47   1.882       .  S
O39          C49   1.258       .  A
O40          V47   1.886       .  S
O40          C50   1.256   1_554  A
O41          V47   1.917       .  S
O41          C51   1.273   1_554  A
O42          V47   1.920       .  S
O42          C52   1.272   1_554  A
O43          V48   1.880       .  S
O43          C52   1.258       .  A
O44          V48   1.883       .  S
O44          C51   1.255       .  A
O45          V48   1.916       .  S
O45          C50   1.272       .  A
O46          V48   1.920       .  S
O46          C49   1.272   1_556  A
V47          V48   2.085   1_554  T
C49         C658   1.485       .  S
C51          C88   1.467       .  S
C52         C671   1.487       .  S
C53          C54   1.487       .  S
C53          C59   1.511       .  S
C53          C57   1.524   1_556  S
C53         C651   1.549       .  S
C54          H61   1.075       .  S
C54          C55   1.383       .  D
C55          C56   1.609       .  S
C55         C184   1.517       .  S
C56          C60   1.594       .  S
C56          C58   1.545   1_556  S
C56          H62   1.109       .  S
C57          H63   1.078       .  S
C57          C58   1.374       .  D
C58         C269   1.521       .  S
C59          H64   1.078       .  S
C59          C60   1.375       .  D
C60          C72   1.563   1_556  S
C65          C66   1.499       .  S
C65          C71   1.504       .  S
C65          C69   1.533   1_554  S
C65         C661   1.556       .  S
C66          H73   1.067       .  S
C66          C67   1.376       .  D
C67          C68   1.592       .  S
C67         C436   1.512       .  S
C68          C72   1.597       .  S
C68          C70   1.537   1_554  S
C68          H74   1.109       .  S
C69          H75   1.079       .  S
C69          C70   1.372       .  D
C70         C409   1.515       .  S
C71          H76   1.076       .  S
C71          C72   1.383       .  D
O77          V85   1.878       .  S
O77          C87   1.255   1_554  A
O78          V85   1.881       .  S
O78          C88   1.255   1_554  A
O79          V85   1.918       .  S
O79          C89   1.272   1_554  A
O80          V85   1.915       .  S
O80          C90   1.272   1_554  A
O81          V86   1.891       .  S
O81          C90   1.260       .  A
O82          V86   1.886       .  S
O82          C89   1.257       .  A
O83          V86   1.921       .  S
O83          C88   1.274       .  A
O84          V86   1.923       .  S
O84          C87   1.271       .  A
V85          V86   2.085   1_554  T
C87         C641   1.469   1_556  S
C89         C151   1.468       .  S
C90         C648   1.488       .  S
C91          C92   1.483       .  S
C91          C97   1.522       .  S
C91          C95   1.521   1_556  S
C91         C628   1.553       .  S
C92          H99   1.081       .  S
C92          C93   1.386       .  D
C93          C94   1.607       .  S
C93         C412   1.522       .  S
C94          C98   1.564       .  S
C94          C96   1.543   1_556  S
C94         H100   1.110       .  S
C95         H101   1.083       .  S
C95          C96   1.380       .  D
C96         C433   1.526       .  S
C97         H102   1.084       .  S
C97          C98   1.381       .  D
C98         C110   1.545   1_556  S
C103        C104   1.492       .  S
C103        C109   1.519       .  S
C103        C107   1.536   1_554  S
C103        C638   1.543       .  S
C104        H111   1.081       .  S
C104        C105   1.380       .  D
C105        C106   1.584       .  S
C105        C248   1.509       .  S
C106        C110   1.586       .  S
C106        C108   1.521   1_554  S
C106        H112   1.108       .  S
C107        H113   1.080       .  S
C107        C108   1.374       .  D
C108        C219   1.504       .  S
C109        H114   1.082       .  S
C109        C110   1.378       .  D
C115        C116   1.486       .  S
C115        C121   1.527       .  S
C115        C119   1.541   1_554  S
C115        C621   1.546       .  S
C116        H123   1.082       .  S
C116        C117   1.368       .  D
C117        C118   1.589       .  S
C117        C362   1.500       .  S
C118        C122   1.595       .  S
C118        C120   1.522   1_554  S
C118        H124   1.109       .  S
C119        H125   1.083       .  S
C119        C120   1.369       .  D
C120        C333   1.502       .  S
C121        H126   1.072       .  S
C121        C122   1.391       .  D
C122        C134   1.570   1_554  S
C127        C128   1.486       .  S
C127        C133   1.540       .  S
C127        C131   1.544   1_556  S
C127        C681   1.551       .  S
C128        H135   1.078       .  S
C128        C129   1.373       .  D
C129        C130   1.607       .  S
C129        C222   1.519       .  S
C130        C134   1.601       .  S
C130        C132   1.533   1_556  S
C130        H136   1.109       .  S
C131        H137   1.079       .  S
C131        C132   1.376       .  D
C132        C245   1.524       .  S
C133        H138   1.076       .  S
C133        C134   1.379       .  D
O139        V147   1.897       .  S
O139        C149   1.262       .  A
O140        V147   1.893       .  S
O140        C150   1.258       .  A
O141        V147   1.916       .  S
O141        C151   1.272       .  A
O142        V147   1.921       .  S
O142        C152   1.270   1_556  A
O143        V148   1.883       .  S
O143        C152   1.257       .  A
O144        V148   1.887       .  S
O144        C151   1.256   1_554  A
O145        V148   1.913       .  S
O145        C150   1.271   1_554  A
O146        V148   1.922       .  S
O146        C149   1.273   1_554  A
V147        V148   2.086   1_556  T
C149        C631   1.501       .  S
C152        C618   1.473       .  S
O153        V161   1.884       .  S
O153        C163   1.257       .  A
O154        V161   1.884       .  S
O154        C164   1.255       .  A
O155        V161   1.918       .  S
O155        C165   1.273       .  A
O156        V161   1.927       .  S
O156        C166   1.273       .  A
O157        V162   1.878       .  S
O157        C166   1.256   1_565  A
O158        V162   1.882       .  S
O158        C165   1.254   1_565  A
O159        V162   1.916       .  S
O159        C164   1.273   1_565  A
O160        V162   1.928       .  S
O160        C163   1.273   1_565  A
V161        V162   2.088   1_545  T
C163        C608   1.479       .  S
C164        C202   1.465       .  S
C165        C241   1.466       .  S
C166        C598   1.476   1_545  S
C167        C168   1.485       .  S
C167        C173   1.527       .  S
C167        C171   1.539   1_545  S
C167        C591   1.547       .  S
C168        H175   1.077       .  S
C168        C169   1.376       .  D
C169        C170   1.592       .  S
C169        C400   1.512       .  S
C170        C174   1.597       .  S
C170        C172   1.524   1_545  S
C170        H176   1.109       .  S
C171        H177   1.083       .  S
C171        C172   1.372       .  D
C172        C321   1.509       .  S
C173        H178   1.074       .  S
C173        C174   1.384       .  D
C174        C186   1.564   1_545  S
C179        C180   1.486       .  S
C179        C185   1.538       .  S
C179        C183   1.535   1_565  S
C179        C601   1.548       .  S
C180        H187   1.080       .  S
C180        C181   1.373       .  D
C181        C182   1.597       .  S
C182        C186   1.589       .  S
C182        C184   1.538   1_565  S
C182        H188   1.109       .  S
C183        H189   1.082       .  S
C183        C184   1.371       .  D
C185        H190   1.078       .  S
C185        C186   1.391       .  D
O191        V199   1.885       .  S
O191        C201   1.257       .  A
O192        V199   1.878       .  S
O192        C202   1.254   1_565  A
O193        V199   1.911       .  S
O193        C203   1.272   1_565  A
O194        V199   1.925       .  S
O194        C204   1.272       .  A
O195        V200   1.879       .  S
O195        C204   1.256   1_545  A
O196        V200   1.878       .  S
O196        C203   1.253       .  A
O197        V200   1.921       .  S
O197        C202   1.274       .  A
O198        V200   1.928       .  S
O198        C201   1.273   1_545  A
V199        V200   2.088   1_565  T
C201        C578   1.480       .  S
C203        C302   1.458       .  S
C204        C588   1.473       .  S
C205        C206   1.485       .  S
C205        C211   1.528       .  S
C205        C209   1.537   1_565  S
C205        C571   1.547       .  S
C206        H213   1.075       .  S
C206        C207   1.376       .  D
C207        C208   1.595   1_565  S
C207        C324   1.519       .  S
C208        C212   1.602   1_545  S
C208        C210   1.526       .  S
C208        H214   1.109       .  S
C209        H215   1.083       .  S
C209        C210   1.370       .  D
C210        C397   1.510       .  S
C211        H216   1.077       .  S
C211        C212   1.386       .  D
C212        C224   1.564   1_565  S
C217        C218   1.483       .  S
C217        C223   1.536       .  S
C217        C221   1.544   1_545  S
C217        C611   1.553       .  S
C218        H225   1.079       .  S
C218        C219   1.372       .  D
C219        C220   1.599       .  S
C220        C224   1.582       .  S
C220        C222   1.529   1_545  S
C220        H226   1.108       .  S
C221        H227   1.078       .  S
C221        C222   1.377       .  D
C223        H228   1.074       .  S
C223        C224   1.387       .  D
O229        V237   1.876       .  S
O229        C239   1.255   1_565  A
O230        V237   1.881       .  S
O230        C240   1.254   1_565  A
O231        V237   1.922       .  S
O231        C241   1.274   1_565  A
O232        V237   1.931       .  S
O232        C242   1.274   1_565  A
O233        V238   1.884       .  S
O233        C242   1.257       .  A
O234        V238   1.877       .  S
O234        C241   1.253       .  A
O235        V238   1.916       .  S
O235        C240   1.273       .  A
O236        V238   1.927       .  S
O236        C239   1.273       .  A
V237        V238   2.088   1_565  T
C239        C568   1.473       .  S
C240        C303   1.463       .  S
C242        C561   1.483       .  S
C243        C244   1.492       .  S
C243        C249   1.508       .  S
C243        C247   1.520   1_565  S
C243        C548   1.539       .  S
C244        H251   1.070       .  S
C244        C245   1.381       .  D
C245        C246   1.611   1_565  S
C246        C250   1.581       .  S
C246        C248   1.542       .  S
C246        H252   1.109       .  S
C247        H253   1.081       .  S
C247        C248   1.364       .  D
C249        H254   1.087       .  S
C249        C250   1.380   1_565  D
C250        C262   1.553       .  S
C255        C256   1.490       .  S
C255        C261   1.537       .  S
C255        C259   1.535   1_545  S
C255        C558   1.551       .  S
C256        H263   1.081       .  S
C256        C257   1.376       .  D
C257        C258   1.591       .  S
C257        C424   1.514       .  S
C258        C262   1.589       .  S
C258        C260   1.540   1_545  S
C258        H264   1.109       .  S
C259        H265   1.081       .  S
C259        C260   1.371       .  D
C260        C371   1.516       .  S
C261        H266   1.075       .  S
C261        C262   1.385       .  D
C267        C268   1.486       .  S
C267        C273   1.526       .  S
C267        C271   1.541   1_545  S
C267        C541   1.544       .  S
C268        H275   1.080       .  S
C268        C269   1.377       .  D
C269        C270   1.598       .  S
C270        C274   1.593       .  S
C270        C272   1.529   1_545  S
C270        H276   1.108       .  S
C271        H277   1.080       .  S
C271        C272   1.367       .  D
C273        H278   1.074       .  S
C273        C274   1.380       .  D
C274        C286   1.553   1_545  S
C279        C280   1.487       .  S
C279        C285   1.529       .  S
C279        C283   1.544   1_565  S
C279        C581   1.552       .  S
C280        H287   1.082       .  S
C280        C281   1.375       .  D
C281        C282   1.580       .  S
C281        C374   1.509       .  S
C282        C286   1.588       .  S
C282        C284   1.518   1_565  S
C282        H288   1.108       .  S
C283        H289   1.081       .  S
C283        C284   1.368       .  D
C284        C421   1.498       .  S
C285        H290   1.077       .  S
C285        C286   1.391       .  D
O291        V299   1.868       .  S
O291        C301   1.254   1_565  A
O292        V299   1.868       .  S
O292        C302   1.252   1_565  A
O293        V299   1.922       .  S
O293        C303   1.275   1_565  A
O294        V299   1.926       .  S
O294        C304   1.273   1_565  A
O295        V300   1.875       .  S
O295        C304   1.254       .  A
O296        V300   1.874       .  S
O296        C303   1.253       .  A
O297        V300   1.920       .  S
O297        C302   1.274       .  A
O298        V300   1.922       .  S
O298        C301   1.274       .  A
V299        V300   2.083   1_565  T
C301        C551   1.483       .  S
C304        C538   1.469       .  S
O305        V313   1.915       .  S
O305        C315   1.271       .  A
O306        V313   1.908       .  S
O306        C316   1.270       .  A
O307        V313   1.892       .  S
O307        C317   1.261       .  A
O308        V313   1.893       .  S
O308        C318   1.257       .  A
O309        V314   1.915       .  S
O309        C318   1.273   1_655  A
O310        V314   1.925       .  S
O310        C317   1.271   1_655  A
O311        V314   1.884       .  S
O311        C316   1.256   1_655  A
O312        V314   1.881       .  S
O312        C315   1.258   1_655  A
V313        V314   2.087   1_455  T
C315        C528   1.483   1_455  S
C316        C354   1.461       .  S
C317        C521   1.486       .  S
C318        C455   1.471       .  S
C319        C320   1.489       .  S
C319        C325   1.509       .  S
C319        C323   1.519   1_655  S
C319        C508   1.541       .  S
C320        H327   1.072       .  S
C320        C321   1.376       .  D
C321        C322   1.601       .  S
C322        C326   1.577       .  S
C322        C324   1.548   1_655  S
C322        H328   1.109       .  S
C323        H329   1.074       .  S
C323        C324   1.375       .  D
C325        H330   1.087       .  S
C325        C326   1.383       .  D
C326        C338   1.554   1_655  S
C331        C332   1.496       .  S
C331        C337   1.536       .  S
C331        C335   1.544   1_455  S
C331        C518   1.556       .  S
C332        H339   1.082       .  S
C332        C333   1.375       .  D
C333        C334   1.589       .  S
C334        C338   1.590       .  S
C334        C336   1.540   1_455  S
C334        H340   1.109       .  S
C335        H341   1.082       .  S
C335        C336   1.382       .  D
C337        H342   1.074       .  S
C337        C338   1.378       .  D
O343        V351   1.880       .  S
O343        C353   1.257       .  A
O344        V351   1.878       .  S
O344        C354   1.255       .  A
O345        V351   1.916       .  S
O345        C355   1.273       .  A
O346        V351   1.919       .  S
O346        C356   1.272       .  A
O347        V352   1.869       .  S
O347        C356   1.256   1_655  A
O348        V352   1.877       .  S
O348        C355   1.253   1_655  A
O349        V352   1.915       .  S
O349        C354   1.271   1_655  A
O350        V352   1.915       .  S
O350        C353   1.272   1_655  A
V351        V352   2.086   1_455  T
C353        C501   1.483       .  S
C355        C392   1.461       .  S
C356        C511   1.480       .  S
C357        C358   1.500       .  S
C357        C363   1.489       .  S
C357        C361   1.535   1_655  S
C357        C488   1.550       .  S
C358        H365   1.078       .  S
C358        C359   1.383       .  D
C359        C360   1.599       .  S
C360        C364   1.588       .  S
C360        C362   1.521   1_655  S
C360        H366   1.109       .  S
C361        H367   1.083       .  S
C361        C362   1.373       .  D
C363        H368   1.077       .  S
C363        C364   1.377       .  D
C364        C376   1.548   1_655  S
C369        C370   1.490       .  S
C369        C375   1.517       .  S
C369        C373   1.522   1_455  S
C369        C498   1.546       .  S
C370        H377   1.075       .  S
C370        C371   1.388       .  D
C371        C372   1.611       .  S
C372        C376   1.577       .  S
C372        C374   1.537   1_455  S
C372        H378   1.109       .  S
C373        H379   1.082       .  S
C373        C374   1.363       .  D
C375        H380   1.083       .  S
C375        C376   1.376       .  D
O381        V389   1.877       .  S
O381        C391   1.256       .  A
O382        V389   1.876       .  S
O382        C392   1.253       .  A
O383        V389   1.923       .  S
O383        C393   1.274       .  A
O384        V389   1.926       .  S
O384        C394   1.274   1_455  A
O385        V390   1.885       .  S
O385        C394   1.258       .  A
O386        V390   1.880       .  S
O386        C393   1.255   1_655  A
O387        V390   1.916       .  S
O387        C392   1.273   1_655  A
O388        V390   1.920       .  S
O388        C391   1.273   1_655  A
V389        V390   2.083   1_455  T
C391        C481   1.483       .  S
C393        C454   1.467       .  S
C394        C491   1.494       .  S
C395        C396   1.486       .  S
C395        C401   1.503       .  S
C395        C399   1.516   1_455  S
C395        C471   1.542       .  S
C396        H403   1.072       .  S
C396        C397   1.379       .  D
C397        C398   1.603       .  S
C398        C402   1.577       .  S
C398        C400   1.547   1_455  S
C398        H404   1.109       .  S
C399        H405   1.077       .  S
C399        C400   1.374       .  D
C401        H406   1.079       .  S
C401        C402   1.383       .  D
C402        C414   1.561   1_455  S
C407        C408   1.506       .  S
C407        C413   1.518       .  S
C407        C411   1.544   1_655  S
C407        C531   1.546       .  S
C408        H415   1.077       .  S
C408        C409   1.379       .  D
C409        C410   1.592       .  S
C410        C414   1.604       .  S
C410        C412   1.540   1_655  S
C410        H416   1.109       .  S
C411        H417   1.079       .  S
C411        C412   1.374       .  D
C413        H418   1.085       .  S
C413        C414   1.375       .  D
C419        C420   1.493       .  S
C419        C425   1.545       .  S
C419        C423   1.540   1_655  S
C419        C458   1.547       .  S
C420        H427   1.081       .  S
C420        C421   1.375       .  D
C421        C422   1.589       .  S
C422        C426   1.588       .  S
C422        C424   1.534   1_655  S
C422        H428   1.108       .  S
C423        H429   1.081       .  S
C423        C424   1.367       .  D
C425        H430   1.077       .  S
C425        C426   1.381       .  D
C426        C438   1.551       .  S
C431        C432   1.500       .  S
C431        C437   1.487       .  S
C431        C435   1.534   1_455  S
C431        C478   1.538       .  S
C432        H439   1.082       .  S
C432        C433   1.378       .  D
C433        C434   1.602       .  S
C434        C438   1.594   1_455  S
C434        C436   1.527   1_455  S
C434        H440   1.109   1_455  S
C435        H441   1.082       .  S
C435        C436   1.371       .  D
C437        H442   1.086       .  S
C437        C438   1.381   1_455  D
O443        V451   1.879       .  S
O443        C453   1.257       .  A
O444        V451   1.886       .  S
O444        C454   1.256       .  A
O445        V451   1.929       .  S
O445        C455   1.275       .  A
O446        V451   1.930       .  S
O446        C456   1.274   1_455  A
O447        V452   1.874       .  S
O447        C456   1.255       .  A
O448        V452   1.877       .  S
O448        C455   1.254   1_655  A
O449        V452   1.914       .  S
O449        C454   1.272   1_655  A
O450        V452   1.920       .  S
O450        C453   1.272   1_655  A
V451        V452   2.086   1_455  T
C453        C468   1.485       .  S
C456        C461   1.477       .  S
C457        C458   1.410       .  A
C457        C462   1.401       .  A
C457        F464   1.353       .  S
C458        C459   1.424       .  A
C459        C460   1.402   1_655  A
C459        F466   1.359   1_655  S
C460        C461   1.397   1_455  A
C460        F465   1.358       .  S
C461        C462   1.408       .  A
C462        F463   1.358       .  S
C467        C468   1.398   1_655  A
C467        C472   1.395       .  A
C467        F474   1.358       .  S
C468        C469   1.413       .  A
C469        C470   1.402       .  A
C469        F476   1.358       .  S
C470        C471   1.413       .  A
C470        F475   1.355       .  S
C471        C472   1.420   1_455  A
C472        F473   1.357       .  S
C477        C478   1.411       .  A
C477        C482   1.405       .  A
C477        F484   1.354       .  S
C478        C479   1.420   1_455  A
C479        C480   1.391       .  A
C479        F486   1.354       .  S
C480        C481   1.397   1_655  A
C480        F485   1.358       .  S
C481        C482   1.414       .  A
C482        F483   1.358       .  S
C487        C488   1.423   1_455  A
C487        C492   1.397       .  A
C487        F494   1.356       .  S
C488        C489   1.412       .  A
C489        C490   1.409       .  A
C489        F496   1.353       .  S
C490        C491   1.416       .  A
C490        F495   1.358       .  S
C491        C492   1.399   1_655  A
C492        F493   1.358       .  S
C497        C498   1.427   1_655  A
C497        C502   1.389       .  A
C497        F504   1.356       .  S
C498        C499   1.409       .  A
C499        C500   1.407       .  A
C499        F506   1.355       .  S
C500        C501   1.415       .  A
C500        F505   1.358       .  S
C501        C502   1.395   1_455  A
C502        F503   1.359       .  S
C507        C508   1.411       .  A
C507        C512   1.398       .  A
C507        F514   1.354       .  S
C508        C509   1.422   1_655  A
C509        C510   1.395       .  A
C509        F516   1.355       .  S
C510        C511   1.397       .  A
C510        F515   1.358       .  S
C511        C512   1.412   1_455  A
C512        F513   1.358       .  S
C517        C518   1.424   1_655  A
C517        C522   1.407       .  A
C517        F524   1.358       .  S
C518        C519   1.417       .  A
C519        C520   1.402       .  A
C519        F526   1.353       .  S
C520        C521   1.405       .  A
C520        F525   1.359       .  S
C521        C522   1.400   1_455  A
C522        F523   1.358       .  S
C527        C528   1.411       .  A
C527        C532   1.402       .  A
C527        F534   1.358       .  S
C528        C529   1.399   1_655  A
C529        C530   1.395       .  A
C529        F536   1.358       .  S
C530        C531   1.423   1_455  A
C530        F535   1.356       .  S
C531        C532   1.413       .  A
C532        F533   1.357       .  S
C537        C538   1.396       .  A
C537        C542   1.399       .  A
C537        F544   1.358       .  S
C538        C539   1.402       .  A
C539        C540   1.401       .  A
C539        F546   1.358       .  S
C540        C541   1.416       .  A
C540        F545   1.352       .  S
C541        C542   1.423       .  A
C542        F543   1.359       .  S
C547        C548   1.407       .  A
C547        C552   1.400       .  A
C547        F554   1.355       .  S
C548        C549   1.423   1_565  A
C549        C550   1.392       .  A
C549        F556   1.355       .  S
C550        C551   1.397       .  A
C550        F555   1.358       .  S
C551        C552   1.416   1_545  A
C552        F553   1.358       .  S
C557        C558   1.412       .  A
C557        C562   1.405       .  A
C557        F564   1.353       .  S
C558        C559   1.423       .  A
C559        C560   1.402       .  A
C559        F566   1.359       .  S
C560        C561   1.397       .  A
C560        F565   1.358   1_545  S
C561        C562   1.410       .  A
C562        F563   1.358       .  S
C567        C568   1.393       .  A
C567        C572   1.398       .  A
C567        F574   1.358       .  S
C568        C569   1.407   1_545  A
C569        C570   1.405       .  A
C569        F576   1.358       .  S
C570        C571   1.414       .  A
C570        F575   1.352       .  S
C571        C572   1.425   1_565  A
C572        F573   1.359       .  S
C577        C578   1.409       .  A
C577        C582   1.408       .  A
C577        F584   1.358       .  S
C578        C579   1.394       .  A
C579        C580   1.400       .  A
C579        F586   1.358       .  S
C580        C581   1.425       .  A
C580        F585   1.359       .  S
C581        C582   1.414       .  A
C582        F583   1.354       .  S
C587        C588   1.395       .  A
C587        C592   1.400   1_565  A
C587        F594   1.358       .  S
C588        C589   1.405   1_565  A
C589        C590   1.403       .  A
C589        F596   1.358       .  S
C590        C591   1.415       .  A
C590        F595   1.351       .  S
C591        C592   1.424       .  A
C592        F593   1.359   1_545  S
C597        C598   1.408       .  A
C597        C602   1.404       .  A
C597        F604   1.358       .  S
C598        C599   1.395   1_565  A
C599        C600   1.399       .  A
C599        F606   1.358       .  S
C600        C601   1.424   1_545  A
C600        F605   1.359       .  S
C601        C602   1.413       .  A
C602        F603   1.354       .  S
C607        C608   1.397       .  A
C607        C612   1.403       .  A
C607        F614   1.358   1_545  S
C608        C609   1.405       .  A
C609        C610   1.404       .  A
C609        F616   1.358       .  S
C610        C611   1.417       .  A
C610        F615   1.354       .  S
C611        C612   1.423       .  A
C612        F613   1.359       .  S
C617        C618   1.394       .  A
C617        C622   1.398       .  A
C617        F624   1.358   1_554  S
C618        C619   1.405       .  A
C619        C620   1.404       .  A
C619        F626   1.358       .  S
C620        C621   1.415       .  A
C620        F625   1.352       .  S
C621        C622   1.424       .  A
C622        F623   1.359       .  S
C627        C628   1.424   1_554  A
C627        C632   1.401       .  A
C627        F634   1.357       .  S
C628        C629   1.412       .  A
C629        C630   1.408       .  A
C629        F636   1.357       .  S
C630        C631   1.416       .  A
C630        F635   1.358       .  S
C631        C632   1.403   1_556  A
C632        F633   1.358       .  S
C637        C638   1.422       .  A
C637        C642   1.403       .  A
C637        F644   1.358       .  S
C638        C639   1.418       .  A
C639        C640   1.398       .  A
C639        F646   1.347       .  S
C640        C641   1.397       .  A
C640        F645   1.359   1_554  S
C641        C642   1.400       .  A
C642        F643   1.358       .  S
C647        C648   1.413       .  A
C647        C652   1.407       .  A
C647        F654   1.358       .  S
C648        C649   1.398   1_556  A
C649        C650   1.393       .  A
C649        F656   1.358       .  S
C650        C651   1.423   1_554  A
C650        F655   1.355       .  S
C651        C652   1.414       .  A
C652        F653   1.355       .  S
C657        C658   1.409       .  A
C657        C662   1.404       .  A
C657        F664   1.359       .  S
C658        C659   1.397   1_554  A
C659        C660   1.397       .  A
C659        F666   1.358       .  S
C660        C661   1.424   1_556  A
C660        F665   1.354       .  S
C661        C662   1.419       .  A
C662        F663   1.352       .  S
C667        C668   1.411       .  A
C667        C672   1.402       .  A
C667        F674   1.355       .  S
C668        C669   1.422   1_556  A
C669        C670   1.394       .  A
C669        F676   1.356       .  S
C670        C671   1.399   1_554  A
C670        F675   1.358       .  S
C671        C672   1.414       .  A
C672        F673   1.358       .  S
C677        C678   1.405       .  A
C677        C682   1.403       .  A
C677        F684   1.359       .  S
C678        C679   1.396       .  A
C679        C680   1.401       .  A
C679        F686   1.358   1_556  S
C680        C681   1.424       .  A
C680        F685   1.359   1_556  S
C681        C682   1.417       .  A
C682        F683   1.352       .  S
C687        C688   1.398   1_556  A
C687        C692   1.405   1_556  A
C687        F694   1.358       .  S
C688        C689   1.404       .  A
C689        C690   1.401       .  A
C689        F696   1.359       .  S
C690        C691   1.416       .  A
C690        F695   1.349       .  S
C691        C692   1.424       .  A
C692        F693   1.358   1_554  S
