geometry optimzed in LAMMPS
_audit_creation_date              2020-12-01 
_audit_creation_method            'lammps2cif' 
_symmetry_space_group_name_H-M    'P1' 
_symmetry_Int_Tables_number       1 
_symmetry_cell_setting            triclinic 
loop_ 
_symmetry_equiv_pos_as_xyz 
  x,y,z 
_cell_length_a                    41.52248983 
_cell_length_b                    39.52861857424581 
_cell_length_c                    51.83033304680622 
_cell_angle_alpha                 91.16454689580348 
_cell_angle_beta                  89.02351903440857 
_cell_angle_gamma                 90.52270930237758 
loop_ 
_atom_site_label 
_atom_site_type_symbol 
_atom_site_fract_x 
_atom_site_fract_y 
_atom_site_fract_z 
_atom_site_charge 
O1          O  0.20605280  0.92820447  0.35487695    -0.57500
C2          C  0.30668909  0.91774967  0.34525571     0.75100
O3          O  0.24399176  0.85855360  0.29313079    -0.58600
C4          C  0.18185525  0.91380617  0.34471240     0.75100
C5          C  0.24625123  0.96272104  0.28266891     0.77500
Cd6        Cd  0.24504601  0.91065638  0.32059152     1.37500
O7          O  0.28164206  0.93109614  0.35520720    -0.57500
O8          O  0.24134856  0.96891481  0.30638249    -0.56300
C9          C  0.24770844  0.83918208  0.31208787     0.77500
O10         O  0.25076900  0.93209419  0.27602860    -0.58700
O11         O  0.30284430  0.90201118  0.32407968    -0.57100
O12         O  0.18709126  0.89847927  0.32343577    -0.57100
O13         O  0.24905236  0.85299366  0.33430610    -0.56300
O14         O  0.28735860  0.61643488  0.36123264    -0.57500
C15         C  0.18872615  0.61354385  0.34916288     0.75100
O16         O  0.24900329  0.67280659  0.29648915    -0.58600
C17         C  0.31284105  0.61362565  0.34758704     0.75100
C18         C  0.24910646  0.57349944  0.28243976     0.77500
Cd19       Cd  0.25097009  0.62258149  0.32410505     1.37500
O20         O  0.21225188  0.59487505  0.35442550    -0.57500
O21         O  0.24506164  0.56535784  0.30574003    -0.56300
C22         C  0.25332114  0.69399549  0.31482167     0.77500
O23         O  0.25331243  0.60467324  0.27816370    -0.58700
O24         O  0.19437409  0.63628418  0.33287105    -0.57100
O25         O  0.30933651  0.61382877  0.32344382    -0.57100
O26         O  0.25678044  0.68202026  0.33704724    -0.56300
O27         O  0.46411051  0.60471816  0.38292296    -0.57500
C28         C  0.06145562  0.60893078  0.39694527     0.75100
O29         O  0.99977179  0.66677856  0.44863367    -0.58600
C30         C  0.43765977  0.60790808  0.39528677     0.75100
C31         C  0.99801261  0.56020755  0.45737890     0.77500
Cd32       Cd  0.49830127  0.61438747  0.42089585     1.37500
O33         O  0.03688259  0.59496724  0.38705715    -0.57500
O34         O  0.50069459  0.55490165  0.43332378    -0.56300
C35         C  0.49413866  0.68626005  0.43009188     0.77500
O36         O  0.49492910  0.59076565  0.46488902    -0.58700
O37         O  0.05675966  0.62508979  0.41797203    -0.57100
O38         O  0.43938503  0.61222843  0.41947075    -0.57100
O39         O  0.99091002  0.67249611  0.40805968    -0.56300
O40         O  0.03047726  0.92609558  0.38581936    -0.57500
C41         C  0.43170399  0.91380143  0.39338032     0.75100
O42         O  0.49546376  0.85236573  0.44521970    -0.58600
C43         C  0.05451689  0.90955448  0.39308422     0.75100
C44         C  0.49297964  0.95085820  0.46144140     0.77500
Cd45       Cd  0.49224324  0.90310453  0.41864237     1.37500
O46         O  0.45738858  0.92786842  0.38545637    -0.57500
O47         O  0.49879452  0.95923589  0.43846958    -0.56300
C48         C  0.49097925  0.83152811  0.42667514     0.77500
O49         O  0.48638985  0.92000670  0.46500018    -0.58700
O50         O  0.43438808  0.89502419  0.41263430    -0.57100
O51         O  0.04932437  0.88997050  0.41166587    -0.57100
O52         O  0.48709507  0.84381123  0.40454566    -0.56300
O53         O  0.29559637  0.42741900  0.13351768    -0.57500
C54         C  0.19467728  0.41913647  0.14097764     0.75100
O55         O  0.25289863  0.36129815  0.19492672    -0.58600
C56         C  0.31913151  0.41393558  0.14452275     0.75100
C57         C  0.25423766  0.46643520  0.20502735     0.77500
Cd58       Cd  0.25508284  0.41194852  0.16717618     1.37500
O59         O  0.22141712  0.42345333  0.12927181    -0.57500
O60         O  0.25785124  0.47179168  0.18118768    -0.56300
C61         C  0.24920350  0.34051321  0.17620470     0.77500
O62         O  0.25161469  0.43580744  0.21155432    -0.58700
O63         O  0.19604353  0.41303789  0.16478759    -0.57100
O64         O  0.31324894  0.40054575  0.16606389    -0.57100
O65         O  0.24840122  0.35288080  0.15392510    -0.56300
O66         O  0.20728634  0.09903985  0.13976697    -0.57500
C67         C  0.30597109  0.11832018  0.14668506     0.75100
O68         O  0.24635090  0.17602592  0.19889218    -0.58600
C69         C  0.18207691  0.11273267  0.14908686     0.75100
C70         C  0.24544577  0.07199030  0.21091450     0.77500
Cd71       Cd  0.24427126  0.12304672  0.17237071     1.37500
O72         O  0.28047262  0.10926963  0.13524274    -0.57500
O73         O  0.25201586  0.06580425  0.18743173    -0.56300
C74         C  0.24472405  0.19494805  0.17946313     0.77500
O75         O  0.23837536  0.10224909  0.21704699    -0.58700
O76         O  0.30294557  0.12901368  0.16975087    -0.57100
O77         O  0.18568059  0.13047480  0.16940166    -0.57100
O78         O  0.24340450  0.18045677  0.15752006    -0.56300
O79         O  0.03285679  0.08976980  0.10833155    -0.57500
C80         C  0.43313230  0.11312673  0.10052656     0.75100
O81         O  0.49831685  0.16259042  0.04788724    -0.58600
C82         C  0.05744854  0.10565222  0.10002069     0.75100
C83         C  0.49472481  0.05794533  0.03860333     0.77500
Cd84       Cd  0.49579254  0.11272766  0.07607509     1.37500
O85         O  0.45774641  0.10442843  0.11283423    -0.57500
O86         O  0.49050344  0.05308128  0.06243337    -0.56300
C87         C  0.50107296  0.18367494  0.06656148     0.77500
O88         O  0.49935458  0.08826360  0.03186760    -0.58700
O89         O  0.43754908  0.12099821  0.07720874    -0.58700
O90         O  0.05321978  0.12363821  0.08055015    -0.57100
O91         O  0.50050909  0.17181964  0.08907234    -0.56300
O92         O  0.47052697  0.42244861  0.10539468    -0.57500
C93         C  0.06937698  0.41252885  0.09295755     0.75100
O94         O  0.50584159  0.34810901  0.04393520    -0.58600
C95         C  0.44549316  0.40850066  0.09620181     0.75100
C96         C  0.00289999  0.45235241  0.03109341     0.77500
Cd97       Cd  0.50689901  0.40163928  0.07026394     1.37500
O98         O  0.04405137  0.40951169  0.10668416    -0.57500
O99         O  0.49898169  0.45931471  0.05486798    -0.56300
C100        C  0.50855020  0.32916349  0.06323177     0.77500
O101        O  0.50861342  0.42166491  0.02515477    -0.58700
O102        O  0.06545439  0.41187947  0.06881082    -0.57100
O103        O  0.44889037  0.39240453  0.07500604    -0.57100
O104        O  0.01076442  0.34380655  0.08501773    -0.56300
C105        C  0.48205667  0.23851375  0.04890431    -0.01500
C106        C  0.50500101  0.22044440  0.06274966     0.08200
C107        C  0.03065366  0.23799413  0.07471269    -0.01600
C108        C  0.03261687  0.27348353  0.07373588    -0.01600
C109        C  0.50876314  0.29177583  0.06101902     0.08300
C110        C  0.48371801  0.27415028  0.04828224    -0.01800
Br111      Br  0.44985949  0.29881465  0.03213628    -0.00400
Br112      Br  0.44693568  0.21469518  0.03242609    -0.00500
Br113      Br  0.06845328  0.29692793  0.08962859    -0.00400
Br114      Br  0.06367100  0.21341206  0.09213557    -0.00400
C115        C  0.14810246  0.11015984  0.10947347    -0.01500
C116        C  0.15022447  0.10895654  0.13661260     0.08200
C117        C  0.12168125  0.10542001  0.15166629    -0.01600
C118        C  0.09140946  0.10380073  0.13976530    -0.01600
C119        C  0.08935351  0.10445596  0.11257249     0.08300
C120        C  0.11801906  0.10680972  0.09749854    -0.01800
Br121      Br  0.11681445  0.10448219  0.06019018    -0.00400
Br122      Br  0.18589357  0.11987885  0.08845090    -0.00500
Br123      Br  0.05287137  0.10320397  0.16129336    -0.00400
Br124      Br  0.12342720  0.10247661  0.18878443    -0.00400
C125        C  0.38604170  0.08469307  0.12200770    -0.01500
C126        C  0.40072362  0.11439183  0.11259246     0.08200
C127        C  0.38382231  0.14521614  0.11375839    -0.01600
C128        C  0.35253203  0.14637615  0.12459793    -0.01600
C129        C  0.33788643  0.11666837  0.13394121     0.08300
C130        C  0.35447426  0.08577646  0.13233457    -0.01800
Br131      Br  0.33378096  0.04497404  0.14424339    -0.00400
Br132      Br  0.40875387  0.04232750  0.12007042    -0.00500
Br133      Br  0.32942716  0.18855363  0.12631165    -0.00400
Br134      Br  0.40402595  0.18620617  0.10148463    -0.00400
C135        C  0.10638826  0.43544451  0.12730567    -0.01500
C136        C  0.10189834  0.41593579  0.10444173     0.08200
C137        C  0.12855170  0.39887492  0.09298849    -0.01600
C138        C  0.15908117  0.40092887  0.10445904    -0.01600
C139        C  0.16335409  0.41985840  0.12757129     0.08300
C140        C  0.13693527  0.43738120  0.13876325    -0.01800
Br141      Br  0.14265743  0.46529303  0.16941142    -0.00400
Br142      Br  0.07108971  0.46066334  0.14280097    -0.00500
Br143      Br  0.19443607  0.37546486  0.08930044    -0.00400
Br144      Br  0.12331198  0.37018859  0.06261038    -0.00400
C145        C  0.36608750  0.38137820  0.12680665    -0.01500
C146        C  0.35172905  0.41289231  0.13261418     0.08200
C147        C  0.36866260  0.44307385  0.12714498    -0.01600
C148        C  0.39972468  0.44175586  0.11576391    -0.01600
C149        C  0.41379588  0.41023300  0.10953237     0.08300
C150        C  0.39701177  0.38004919  0.11530409    -0.01800
Br151      Br  0.41692208  0.33670308  0.10840362    -0.00400
Br152      Br  0.34279049  0.33985061  0.13351136    -0.00500
Br153      Br  0.42247606  0.48316295  0.10785333    -0.00400
Br154      Br  0.34967907  0.48623723  0.13585995    -0.00400
C155        C  0.26986757  0.28599132  0.19331008    -0.01500
C156        C  0.24623517  0.30354735  0.17972931     0.08200
C157        C  0.22100060  0.28527424  0.16772834    -0.01600
C158        C  0.21963232  0.24980630  0.16907164    -0.01600
C159        C  0.24396862  0.23220728  0.18170527     0.08300
C160        C  0.26886976  0.25036028  0.19412530    -0.01800
Br161      Br  0.30335385  0.22642195  0.21009756    -0.00400
Br162      Br  0.30556151  0.31030816  0.20854607    -0.00500
Br163      Br  0.18398325  0.22520363  0.15378680    -0.00400
Br164      Br  0.18817127  0.30853282  0.14912882    -0.00400
C165        C  0.02144998  0.99749814  0.48498496    -0.01500
C166        C  0.49418352  0.97617110  0.48272658     0.08200
C167        C  0.46758914  0.98068767  0.49971133    -0.01600
C168        C  0.46768689  0.00754991  0.01801922    -0.01600
C169        C  0.49459785  0.02953991  0.01967199     0.08300
C170        C  0.02166909  0.02405842  0.50342451    -0.01800
Br171      Br  0.05969395  0.05210365  0.50704179    -0.00400
Br172      Br  0.05924763  0.98941821  0.46353849    -0.00500
Br173      Br  0.43000265  0.01564668  0.03954163    -0.00400
Br174      Br  0.43029660  0.95132213  0.49704745    -0.00400
C175        C  0.02556131  0.51031746  0.47584741    -0.01500
C176        C  0.99878382  0.53202999  0.47569979     0.08200
C177        C  0.47269023  0.52647890  0.99284509    -0.01600
C178        C  0.47394015  0.50029969  0.01085864    -0.01600
C179        C  0.00103609  0.47895265  0.01141460     0.08300
C180        C  0.02666419  0.48381337  0.49358612    -0.01800
Br181      Br  0.06427918  0.45549433  0.49428069    -0.00400
Br182      Br  0.06146118  0.51772625  0.45242105    -0.00500
Br183      Br  0.43774461  0.49283330  0.03395614    -0.00400
Br184      Br  0.43426479  0.55328356  0.99033654    -0.00400
C185        C  0.01757246  0.77835441  0.44046027    -0.01500
C186        C  0.49046867  0.79458578  0.43048580     0.08200
C187        C  0.46330000  0.77523774  0.42318079    -0.01600
C188        C  0.46375667  0.73975096  0.42484284    -0.01600
C189        C  0.49159145  0.72337103  0.43330556     0.08300
C190        C  0.01815842  0.74277660  0.44181097    -0.01800
Br191      Br  0.05627847  0.72056371  0.45349279    -0.00400
Br192      Br  0.05501101  0.80460855  0.45023872    -0.00500
Br193      Br  0.42586461  0.71346628  0.41618109    -0.00400
Br194      Br  0.42525090  0.79737765  0.41114657    -0.00400
C195        C  0.27599104  0.54545077  0.24415046    -0.01500
C196        C  0.24947013  0.54760200  0.26148778     0.08200
C197        C  0.22407435  0.52376867  0.25962538    -0.01600
C198        C  0.22567951  0.49727337  0.24110455    -0.01600
C199        C  0.25256205  0.49457674  0.22421308     0.08300
C200        C  0.27746056  0.51907481  0.22549020    -0.01800
Br201      Br  0.31456259  0.51557127  0.20267341    -0.00400
Br202      Br  0.31141105  0.57732583  0.24687945    -0.00500
Br203      Br  0.19019474  0.46558770  0.23806796    -0.00400
Br204      Br  0.18623237  0.52835028  0.28159302    -0.00400
C205        C  0.15257259  0.60371627  0.38791544    -0.01500
C206        C  0.15621536  0.60939952  0.36118979     0.08200
C207        C  0.12845758  0.61244398  0.34599542    -0.01600
C208        C  0.09752397  0.61188732  0.35758676    -0.01600
C209        C  0.09389366  0.60719690  0.38443488     0.08300
C210        C  0.12155920  0.60214567  0.39938250    -0.01800
Br211      Br  0.11727304  0.59167601  0.43553221    -0.00400
Br212      Br  0.18990174  0.60002173  0.40943363    -0.00500
Br213      Br  0.06039985  0.61970391  0.33654438    -0.00400
Br214      Br  0.13238679  0.61610245  0.30891211    -0.00400
C215        C  0.37109136  0.63091141  0.34975969    -0.01500
C216        C  0.34513695  0.61093254  0.35912013     0.08200
C217        C  0.35021167  0.58878307  0.37966481    -0.01600
C218        C  0.38065478  0.58728218  0.39117271    -0.01600
C219        C  0.40629874  0.60779217  0.38217676     0.08300
C220        C  0.40140742  0.62958823  0.36141691    -0.01800
Br221      Br  0.43547883  0.65979562  0.35005488    -0.00400
Br222      Br  0.36529520  0.66151667  0.32166126    -0.00500
Br223      Br  0.38748779  0.55610035  0.41870911    -0.00400
Br224      Br  0.31612149  0.55882100  0.39115789    -0.00400
C225        C  0.27435755  0.99874631  0.25001502    -0.01500
C226        C  0.24608299  0.99012568  0.26387283     0.08200
C227        C  0.21772949  0.00878907  0.26066254    -0.01600
C228        C  0.21756483  0.03590531  0.24353048    -0.01600
C229        C  0.24594172  0.04485819  0.22994288     0.08300
C230        C  0.27435976  0.02629716  0.23324971    -0.01800
Br231      Br  0.31363627  0.03951696  0.21555647    -0.00400
Br232      Br  0.31334434  0.97355427  0.25455233    -0.00500
Br233      Br  0.17789641  0.05919304  0.23738940    -0.00400
Br234      Br  0.17862707  0.99604586  0.27881000    -0.00400
C235        C  0.34125456  0.91858303  0.38478057    -0.01500
C236        C  0.33877205  0.91968632  0.35763122     0.08200
C237        C  0.36731956  0.92113393  0.34228321    -0.01600
C238        C  0.39776628  0.91949499  0.35381797    -0.01600
C239        C  0.40009797  0.91840537  0.38095938     0.08300
C240        C  0.37168988  0.91967860  0.39633207    -0.01800
Br241      Br  0.37409127  0.92493017  0.43344472    -0.00400
Br242      Br  0.30353372  0.91203287  0.40655641    -0.00500
Br243      Br  0.43591632  0.91679759  0.33193961    -0.00400
Br244      Br  0.36541854  0.92600583  0.30527189    -0.00400
C245        C  0.11492985  0.91085163  0.39587075    -0.01500
C246        C  0.08698814  0.91259468  0.38069383     0.08200
C247        C  0.09041539  0.91594294  0.35366079    -0.01600
C248        C  0.12132767  0.91686754  0.34195479    -0.01600
C249        C  0.14924830  0.91429220  0.35710080     0.08300
C250        C  0.14577139  0.91110489  0.38412866    -0.01800
Br251      Br  0.18294914  0.90423084  0.40535541    -0.00400
Br252      Br  0.11161969  0.90939940  0.43313875    -0.00500
Br253      Br  0.12480118  0.92209126  0.30496453    -0.00400
Br254      Br  0.05295033  0.91756453  0.33202531    -0.00400
C255        C  0.27870658  0.75104397  0.32161244    -0.01500
C256        C  0.25385170  0.73096485  0.31086197     0.08200
C257        C  0.22848149  0.74665902  0.29793065    -0.01600
C258        C  0.22709818  0.78226633  0.29707948    -0.01600
C259        C  0.25115598  0.80219414  0.30902517     0.08300
C260        C  0.27755035  0.78646714  0.32040630    -0.01800
Br261      Br  0.31269450  0.81358117  0.33395276    -0.00400
Br262      Br  0.31464415  0.73037004  0.33806362    -0.00500
Br263      Br  0.19094752  0.80360448  0.28134419    -0.00400
Br264      Br  0.19392760  0.71970839  0.28347248    -0.00400
O265        O  0.20605268  0.92820443  0.85487694    -0.57500
C266        C  0.30668864  0.91774985  0.84525617     0.75100
O267        O  0.24399197  0.85855366  0.79313075    -0.58600
C268        C  0.18185509  0.91380598  0.84471231     0.75100
C269        C  0.24625105  0.96272120  0.78266913     0.77500
Cd270      Cd  0.24504589  0.91065630  0.82059160     1.37500
O271        O  0.28164200  0.93109589  0.85520724    -0.57500
O272        O  0.24134866  0.96891476  0.80638257    -0.56300
C273        C  0.24770849  0.83918207  0.81208805     0.77500
O274        O  0.25076867  0.93209407  0.77602865    -0.58700
O275        O  0.30284419  0.90201101  0.82407968    -0.57100
O276        O  0.18709112  0.89847916  0.82343583    -0.57100
O277        O  0.24905218  0.85299351  0.83430606    -0.56300
O278        O  0.28735847  0.61643503  0.86123265    -0.57500
C279        C  0.18872604  0.61354366  0.84916300     0.75100
O280        O  0.24900334  0.67280680  0.79648929    -0.58600
C281        C  0.31284114  0.61362563  0.84758688     0.75100
C282        C  0.24910634  0.57349920  0.78243990     0.77500
Cd283      Cd  0.25097003  0.62258152  0.82410502     1.37500
O284        O  0.21225187  0.59487514  0.85442547    -0.57500
O285        O  0.24506176  0.56535794  0.80573993    -0.56300
C286        C  0.25332090  0.69399525  0.81482092     0.77500
O287        O  0.25331233  0.60467347  0.77816363    -0.58700
O288        O  0.19437407  0.63628420  0.83287085    -0.57100
O289        O  0.30933637  0.61382868  0.82344382    -0.57100
O290        O  0.25678038  0.68202024  0.83704742    -0.56300
O291        O  0.46411050  0.60471826  0.88292286    -0.57500
C292        C  0.06145569  0.60893066  0.89694491     0.75100
O293        O  0.99977171  0.66677861  0.94863352    -0.58600
C294        C  0.43765956  0.60790809  0.89528687     0.75100
C295        C  0.99801268  0.56020723  0.95737852     0.77500
Cd296      Cd  0.49830121  0.61438742  0.92089581     1.37500
O297        O  0.03688250  0.59496740  0.88705694    -0.57500
O298        O  0.50069432  0.55490155  0.93332371    -0.56300
C299        C  0.49413863  0.68626005  0.93009167     0.77500
O300        O  0.49492923  0.59076559  0.96488898    -0.58700
O301        O  0.05675961  0.62508964  0.91797205    -0.57100
O302        O  0.43938494  0.61222832  0.91947065    -0.57100
O303        O  0.99091017  0.67249621  0.90805953    -0.56300
O304        O  0.03047732  0.92609569  0.88581939    -0.57500
C305        C  0.43170368  0.91380120  0.89338065     0.75100
O306        O  0.49546355  0.85236578  0.94521983    -0.58600
C307        C  0.05451650  0.90955501  0.89308391     0.75100
C308        C  0.49297948  0.95085805  0.96144151     0.77500
Cd309      Cd  0.49224299  0.90310446  0.91864242     1.37500
O310        O  0.45738841  0.92786843  0.88545645    -0.57500
O311        O  0.49879438  0.95923581  0.93846963    -0.56300
C312        C  0.49097898  0.83152795  0.92667492     0.77500
O313        O  0.48638967  0.92000658  0.96500018    -0.58700
O314        O  0.43438785  0.89502431  0.91263440    -0.57100
O315        O  0.04932422  0.88997048  0.91166587    -0.57100
O316        O  0.48709491  0.84381119  0.90454576    -0.56300
O317        O  0.29559640  0.42741914  0.63351771    -0.57500
C318        C  0.19467731  0.41913652  0.64097763     0.75100
O319        O  0.25289873  0.36129821  0.69492674    -0.58600
C320        C  0.31913145  0.41393574  0.64452259     0.75100
C321        C  0.25423780  0.46643559  0.70502713     0.77500
Cd322      Cd  0.25508287  0.41194860  0.66717616     1.37500
O323        O  0.22141715  0.42345328  0.62927176    -0.57500
O324        O  0.25785128  0.47179172  0.68118775    -0.56300
C325        C  0.24920340  0.34051320  0.67620472     0.77500
O326        O  0.25161473  0.43580737  0.71155433    -0.58700
O327        O  0.19604356  0.41303812  0.66478758    -0.57100
O328        O  0.31324888  0.40054570  0.66606388    -0.57100
O329        O  0.24840104  0.35288089  0.65392512    -0.56300
O330        O  0.20728615  0.09904006  0.63976709    -0.57500
C331        C  0.30597086  0.11832022  0.64668545     0.75100
O332        O  0.24635073  0.17602601  0.69889239    -0.58600
C333        C  0.18207658  0.11273301  0.64908723     0.75100
C334        C  0.24544574  0.07199033  0.71091472     0.77500
Cd335      Cd  0.24427101  0.12304686  0.67237098     1.37500
O336        O  0.28047256  0.10926904  0.63524325    -0.57500
O337        O  0.25201609  0.06580458  0.68743207    -0.56300
C338        C  0.24472366  0.19494822  0.67946310     0.77500
O339        O  0.23837489  0.10224921  0.71704726    -0.58700
O340        O  0.30294529  0.12901457  0.66975101    -0.57100
O341        O  0.18568024  0.13047479  0.66940180    -0.57100
O342        O  0.24340407  0.18045683  0.65752028    -0.56300
O343        O  0.03285646  0.08976958  0.60833160    -0.57500
C344        C  0.43313209  0.11312680  0.60052678     0.75100
O345        O  0.49831638  0.16259045  0.54788732    -0.58600
C346        C  0.05744848  0.10565248  0.60002051     0.75100
C347        C  0.49472452  0.05794545  0.53860340     0.77500
Cd348      Cd  0.49579222  0.11272776  0.57607519     1.37500
O349        O  0.45774622  0.10442856  0.61283441    -0.57500
O350        O  0.49050304  0.05308145  0.56243328    -0.56300
C351        C  0.50107275  0.18367510  0.56656154     0.77500
O352        O  0.49935443  0.08826383  0.53186763    -0.58700
O353        O  0.43754875  0.12099834  0.57720898    -0.58700
O354        O  0.05321945  0.12363818  0.58055035    -0.57100
O355        O  0.50050906  0.17181976  0.58907237    -0.56300
O356        O  0.47052706  0.42244886  0.60539470    -0.57500
C357        C  0.06937691  0.41252897  0.59295767     0.75100
O358        O  0.50584140  0.34810916  0.54393515    -0.58600
C359        C  0.44549287  0.40850053  0.59620162     0.75100
C360        C  0.00289989  0.45235250  0.53109358     0.77500
Cd361      Cd  0.50689896  0.40163937  0.57026395     1.37500
O362        O  0.04405138  0.40951170  0.60668433    -0.57500
O363        O  0.49898195  0.45931485  0.55486796    -0.56300
C364        C  0.50855017  0.32916345  0.56323180     0.77500
O365        O  0.50861326  0.42166492  0.52515476    -0.58700
O366        O  0.06545426  0.41187967  0.56881096    -0.57100
O367        O  0.44889033  0.39240463  0.57500615    -0.57100
O368        O  0.01076468  0.34380667  0.58501788    -0.56300
C369        C  0.48205649  0.23851393  0.54890429    -0.01500
C370        C  0.50500080  0.22044443  0.56274966     0.08200
C371        C  0.03065347  0.23799414  0.57471274    -0.01600
C372        C  0.03261673  0.27348359  0.57373597    -0.01600
C373        C  0.50876301  0.29177605  0.56101893     0.08300
C374        C  0.48371787  0.27415033  0.54828222    -0.01800
Br375      Br  0.44985934  0.29881480  0.53213627    -0.00400
Br376      Br  0.44693549  0.21469532  0.53242607    -0.00500
Br377      Br  0.06845332  0.29692788  0.58962855    -0.00400
Br378      Br  0.06367089  0.21341210  0.59213558    -0.00400
C379        C  0.14810215  0.11016015  0.60947371    -0.01500
C380        C  0.15022422  0.10895670  0.63661256     0.08200
C381        C  0.12168093  0.10542002  0.65166649    -0.01600
C382        C  0.09140923  0.10380074  0.63976528    -0.01600
C383        C  0.08935311  0.10445595  0.61257276     0.08300
C384        C  0.11801885  0.10680998  0.59749855    -0.01800
Br385      Br  0.11681417  0.10448260  0.56019030    -0.00400
Br386      Br  0.18589324  0.11987952  0.58845110    -0.00500
Br387      Br  0.05287103  0.10320389  0.66129340    -0.00400
Br388      Br  0.12342688  0.10247630  0.68878448    -0.00400
C389        C  0.38604141  0.08469308  0.62200776    -0.01500
C390        C  0.40072336  0.11439191  0.61259279     0.08200
C391        C  0.38382224  0.14521629  0.61375896    -0.01600
C392        C  0.35253190  0.14637627  0.62459853    -0.01600
C393        C  0.33788628  0.11666842  0.63394153     0.08300
C394        C  0.35447393  0.08577646  0.63233470    -0.01800
Br395      Br  0.33378054  0.04497394  0.64424321    -0.00400
Br396      Br  0.40875347  0.04232742  0.62007021    -0.00500
Br397      Br  0.32942723  0.18855382  0.62631242    -0.00400
Br398      Br  0.40402605  0.18620639  0.60148556    -0.00400
C399        C  0.10638829  0.43544470  0.62730567    -0.01500
C400        C  0.10189833  0.41593591  0.60444179     0.08200
C401        C  0.12855162  0.39887499  0.59298852    -0.01600
C402        C  0.15908113  0.40092889  0.60445907    -0.01600
C403        C  0.16335410  0.41985849  0.62757126     0.08300
C404        C  0.13693533  0.43738140  0.63876321    -0.01800
Br405      Br  0.14265760  0.46529345  0.66941125    -0.00400
Br406      Br  0.07108985  0.46066371  0.64280093    -0.00500
Br407      Br  0.19443597  0.37546479  0.58930046    -0.00400
Br408      Br  0.12331185  0.37018874  0.56261037    -0.00400
C409        C  0.36608750  0.38137837  0.62680658    -0.01500
C410        C  0.35172897  0.41289227  0.63261419     0.08200
C411        C  0.36866262  0.44307405  0.62714501    -0.01600
C412        C  0.39972463  0.44175586  0.61576402    -0.01600
C413        C  0.41379597  0.41023332  0.60953236     0.08300
C414        C  0.39701170  0.38004917  0.61530409    -0.01800
Br415      Br  0.41692207  0.33670314  0.60840364    -0.00400
Br416      Br  0.34279037  0.33985073  0.63351116    -0.00500
Br417      Br  0.42247610  0.48316307  0.60785352    -0.00400
Br418      Br  0.34967901  0.48623733  0.63586010    -0.00400
C419        C  0.26986751  0.28599131  0.69331005    -0.01500
C420        C  0.24623499  0.30354752  0.67972939     0.08200
C421        C  0.22100030  0.28527436  0.66772860    -0.01600
C422        C  0.21963193  0.24980651  0.66907184    -0.01600
C423        C  0.24396837  0.23220732  0.68170547     0.08300
C424        C  0.26886957  0.25036037  0.69412527    -0.01800
Br425      Br  0.30335368  0.22642192  0.71009752    -0.00400
Br426      Br  0.30556167  0.31030808  0.70854571    -0.00500
Br427      Br  0.18398271  0.22520382  0.65378722    -0.00400
Br428      Br  0.18817079  0.30853305  0.64912932    -0.00400
C429        C  0.02145004  0.99749797  0.98498499    -0.01500
C430        C  0.49418354  0.97617093  0.98272662     0.08200
C431        C  0.46758920  0.98068748  0.99971154    -0.01600
C432        C  0.46768665  0.00755014  0.51801903    -0.01600
C433        C  0.49459771  0.02954011  0.51967189     0.08300
C434        C  0.02166935  0.02405841  0.00342456    -0.01800
Br435      Br  0.05969408  0.05210367  0.00704177    -0.00400
Br436      Br  0.05924763  0.98941814  0.96353845    -0.00500
Br437      Br  0.43000238  0.01564689  0.53954132    -0.00400
Br438      Br  0.43029672  0.95132184  0.99704783    -0.00400
C439        C  0.02556147  0.51031748  0.97584728    -0.01500
C440        C  0.99878374  0.53203003  0.97569967     0.08200
C441        C  0.47269031  0.52647892  0.49284510    -0.01600
C442        C  0.47394015  0.50029964  0.51085862    -0.01600
C443        C  0.00103601  0.47895266  0.51141478     0.08300
C444        C  0.02666427  0.48381342  0.99358602    -0.01800
Br445      Br  0.06427935  0.45549448  0.99428066    -0.00400
Br446      Br  0.06146130  0.51772643  0.95242101    -0.00500
Br447      Br  0.43774451  0.49283298  0.53395593    -0.00400
Br448      Br  0.43426489  0.55328360  0.49033658    -0.00400
C449        C  0.01757230  0.77835461  0.94046023    -0.01500
C450        C  0.49046863  0.79458582  0.93048584     0.08200
C451        C  0.46329985  0.77523762  0.92318069    -0.01600
C452        C  0.46375663  0.73975092  0.92484272    -0.01600
C453        C  0.49159145  0.72337093  0.93330545     0.08300
C454        C  0.01815825  0.74277660  0.94181088    -0.01800
Br455      Br  0.05627832  0.72056386  0.95349278    -0.00400
Br456      Br  0.05501082  0.80460873  0.95023870    -0.00500
Br457      Br  0.42586466  0.71346616  0.91618087    -0.00400
Br458      Br  0.42525078  0.79737756  0.91114655    -0.00400
C459        C  0.27599103  0.54545066  0.74415054    -0.01500
C460        C  0.24947033  0.54760219  0.76148773     0.08200
C461        C  0.22407424  0.52376868  0.75962535    -0.01600
C462        C  0.22567961  0.49727358  0.74110444    -0.01600
C463        C  0.25256194  0.49457663  0.72421313     0.08300
C464        C  0.27746079  0.51907486  0.72549024    -0.01800
Br465      Br  0.31456287  0.51557100  0.70267366    -0.00400
Br466      Br  0.31141119  0.57732576  0.74687961    -0.00500
Br467      Br  0.19019467  0.46558791  0.73806776    -0.00400
Br468      Br  0.18623240  0.52835039  0.78159298    -0.00400
C469        C  0.15257243  0.60371618  0.88791546    -0.01500
C470        C  0.15621547  0.60939952  0.86118953     0.08200
C471        C  0.12845747  0.61244386  0.84599539    -0.01600
C472        C  0.09752403  0.61188729  0.85758650    -0.01600
C473        C  0.09389345  0.60719687  0.88443490     0.08300
C474        C  0.12155923  0.60214570  0.89938228    -0.01800
Br475      Br  0.11727295  0.59167592  0.93553204    -0.00400
Br476      Br  0.18990161  0.60002167  0.90943358    -0.00500
Br477      Br  0.06039981  0.61970383  0.83654417    -0.00400
Br478      Br  0.13238684  0.61610212  0.80891194    -0.00400
C479        C  0.37109138  0.63091145  0.84975961    -0.01500
C480        C  0.34513678  0.61093245  0.85912011     0.08200
C481        C  0.35021173  0.58878305  0.87966470    -0.01600
C482        C  0.38065471  0.58728210  0.89117265    -0.01600
C483        C  0.40629878  0.60779227  0.88217665     0.08300
C484        C  0.40140730  0.62958822  0.86141689    -0.01800
Br485      Br  0.43547869  0.65979577  0.85005488    -0.00400
Br486      Br  0.36529508  0.66151666  0.82166120    -0.00500
Br487      Br  0.38748776  0.55610025  0.91870895    -0.00400
Br488      Br  0.31612149  0.55882091  0.89115784    -0.00400
C489        C  0.27435740  0.99874636  0.75001518    -0.01500
C490        C  0.24608298  0.99012562  0.76387295     0.08200
C491        C  0.21772934  0.00878909  0.76066267    -0.01600
C492        C  0.21756480  0.03590532  0.74353069    -0.01600
C493        C  0.24594158  0.04485837  0.72994312     0.08300
C494        C  0.27435974  0.02629716  0.73324988    -0.01800
Br495      Br  0.31363615  0.03951686  0.71555650    -0.00400
Br496      Br  0.31334422  0.97355423  0.75455249    -0.00500
Br497      Br  0.17789629  0.05919300  0.73738955    -0.00400
Br498      Br  0.17862694  0.99604576  0.77881001    -0.00400
C499        C  0.34125426  0.91858292  0.88478080    -0.01500
C500        C  0.33877202  0.91968621  0.85763123     0.08200
C501        C  0.36731927  0.92113390  0.84228345    -0.01600
C502        C  0.39776609  0.91949498  0.85381817    -0.01600
C503        C  0.40009774  0.91840536  0.88095944     0.08300
C504        C  0.37168968  0.91967859  0.89633227    -0.01800
Br505      Br  0.37409105  0.92493011  0.93344491    -0.00400
Br506      Br  0.30353346  0.91203282  0.90655656    -0.00500
Br507      Br  0.43591612  0.91679751  0.83193978    -0.00400
Br508      Br  0.36541838  0.92600599  0.80527209    -0.00400
C509        C  0.11492961  0.91085174  0.89587066    -0.01500
C510        C  0.08698818  0.91259471  0.88069396     0.08200
C511        C  0.09041516  0.91594290  0.85366068    -0.01600
C512        C  0.12132757  0.91686748  0.84195477    -0.01600
C513        C  0.14924812  0.91429210  0.85710081     0.08300
C514        C  0.14577128  0.91110492  0.88412865    -0.01800
Br515      Br  0.18294899  0.90423077  0.90535539    -0.00400
Br516      Br  0.11161954  0.90939959  0.93313873    -0.00500
Br517      Br  0.12480105  0.92209116  0.80496449    -0.00400
Br518      Br  0.05295019  0.91756421  0.83202527    -0.00400
C519        C  0.27870639  0.75104383  0.82161226    -0.01500
C520        C  0.25385203  0.73096497  0.81086214     0.08200
C521        C  0.22848128  0.74665892  0.79793052    -0.01600
C522        C  0.22709835  0.78226635  0.79707949    -0.01600
C523        C  0.25115586  0.80219402  0.80902501     0.08300
C524        C  0.27755052  0.78646713  0.82040630    -0.01800
Br525      Br  0.31269456  0.81358109  0.83395275    -0.00400
Br526      Br  0.31464406  0.73036994  0.83806362    -0.00500
Br527      Br  0.19094755  0.80360447  0.78134415    -0.00400
Br528      Br  0.19392746  0.71970838  0.78347264    -0.00400
O529        O  0.70605298  0.92820456  0.35487683    -0.57500
C530        C  0.80668914  0.91774963  0.34525585     0.75100
O531        O  0.74399202  0.85855348  0.29313059    -0.58600
C532        C  0.68185518  0.91380623  0.34471205     0.75100
C533        C  0.74625142  0.96272123  0.28266878     0.77500
Cd534      Cd  0.74504613  0.91065638  0.32059133     1.37500
O535        O  0.78164217  0.93109573  0.35520720    -0.57500
O536        O  0.74134889  0.96891484  0.30638234    -0.56300
C537        C  0.74770860  0.83918216  0.31208747     0.77500
O538        O  0.75076913  0.93209423  0.27602839    -0.58700
O539        O  0.80284449  0.90201111  0.32407952    -0.57100
O540        O  0.68709123  0.89847958  0.32343562    -0.57100
O541        O  0.74905242  0.85299362  0.33430589    -0.56300
O542        O  0.78735862  0.61643486  0.36123240    -0.57500
C543        C  0.68872626  0.61354350  0.34916305     0.75100
O544        O  0.74900343  0.67280660  0.29648900    -0.58600
C545        C  0.81284100  0.61362573  0.34758691     0.75100
C546        C  0.74910648  0.57349944  0.28243961     0.77500
Cd547      Cd  0.75097005  0.62258147  0.32410486     1.37500
O548        O  0.71225168  0.59487498  0.35442515    -0.57500
O549        O  0.74506195  0.56535783  0.30573975    -0.56300
C550        C  0.75332114  0.69399533  0.31482129     0.77500
O551        O  0.75331227  0.60467331  0.27816343    -0.58700
O552        O  0.69437420  0.63628455  0.33287097    -0.57100
O553        O  0.80933652  0.61382898  0.32344358    -0.57100
O554        O  0.75678034  0.68202021  0.33704712    -0.56300
O555        O  0.96411049  0.60471865  0.38292286    -0.57500
C556        C  0.56145572  0.60893068  0.39694527     0.75100
O557        O  0.49977176  0.66677858  0.44863354    -0.58600
C558        C  0.93765977  0.60790843  0.39528667     0.75100
C559        C  0.49801289  0.56020735  0.45737902     0.77500
Cd560      Cd  0.99830121  0.61438769  0.42089582     1.37500
O561        O  0.53688267  0.59496720  0.38705715    -0.57500
O562        O  0.00069451  0.55490187  0.43332375    -0.56300
C563        C  0.99413867  0.68626031  0.43009191     0.77500
O564        O  0.99492877  0.59076581  0.46488899    -0.58700
O565        O  0.55675974  0.62508957  0.41797215    -0.57100
O566        O  0.93938494  0.61222867  0.41947064    -0.57100
O567        O  0.49090994  0.67249592  0.40805959    -0.56300
O568        O  0.53047743  0.92609610  0.38581952    -0.57500
C569        C  0.93170389  0.91380117  0.39338064     0.75100
O570        O  0.99546396  0.85236592  0.44522001    -0.58600
C571        C  0.55451697  0.90955466  0.39308417     0.75100
C572        C  0.99297944  0.95085833  0.46144151     0.77500
Cd573      Cd  0.99224320  0.90310454  0.41864253     1.37500
O574        O  0.95738862  0.92786885  0.38545667    -0.57500
O575        O  0.99879487  0.95923593  0.43846957    -0.56300
C576        C  0.99097923  0.83152802  0.42667529     0.77500
O577        O  0.98638928  0.92000705  0.46500019    -0.58700
O578        O  0.93438826  0.89502385  0.41263411    -0.57100
O579        O  0.54932435  0.88997025  0.41166550    -0.57100
O580        O  0.98709511  0.84381128  0.40454595    -0.56300
O581        O  0.79559638  0.42741932  0.13351731    -0.57500
C582        C  0.69467713  0.41913650  0.14097742     0.75100
O583        O  0.75289900  0.36129845  0.19492645    -0.58600
C584        C  0.81913169  0.41393571  0.14452242     0.75100
C585        C  0.75423781  0.46643556  0.20502682     0.77500
Cd586      Cd  0.75508290  0.41194876  0.16717582     1.37500
O587        O  0.72141705  0.42345354  0.12927147    -0.57500
O588        O  0.75785128  0.47179186  0.18118738    -0.56300
C589        C  0.74920352  0.34051360  0.17620470     0.77500
O590        O  0.75161478  0.43580753  0.21155397    -0.58700
O591        O  0.69604353  0.41303797  0.16478727    -0.57100
O592        O  0.81324891  0.40054583  0.16606343    -0.57100
O593        O  0.74840089  0.35288111  0.15392489    -0.56300
O594        O  0.70728643  0.09904047  0.13976713    -0.57500
C595        C  0.80597124  0.11832063  0.14668548     0.75100
O596        O  0.74635083  0.17602646  0.19889229    -0.58600
C597        C  0.68207713  0.11273276  0.14908684     0.75100
C598        C  0.74544595  0.07199098  0.21091488     0.77500
Cd599      Cd  0.74427132  0.12304718  0.17237098     1.37500
O600        O  0.78047295  0.10926942  0.13524328    -0.57500
O601        O  0.75201625  0.06580482  0.18743182    -0.56300
C602        C  0.74472399  0.19494839  0.17946335     0.77500
O603        O  0.73837550  0.10224934  0.21704721    -0.58700
O604        O  0.80294568  0.12901491  0.16975103    -0.57100
O605        O  0.68568052  0.13047495  0.16940200    -0.57100
O606        O  0.74340448  0.18045714  0.15752017    -0.56300
O607        O  0.53285687  0.08976934  0.10833165    -0.57500
C608        C  0.93313241  0.11312767  0.10052656     0.75100
O609        O  0.99831746  0.16259072  0.04788696    -0.58600
C610        C  0.55744868  0.10565182  0.10002075     0.75100
C611        C  0.99472469  0.05794615  0.03860313     0.77500
Cd612      Cd  0.99579254  0.11272829  0.07607503     1.37500
O613        O  0.95774666  0.10442937  0.11283431    -0.57500
O614        O  0.99050299  0.05308187  0.06243334    -0.56300
C615        C  0.00107323  0.18367548  0.06656154     0.77500
O616        O  0.99935459  0.08826397  0.03186756    -0.58700
O617        O  0.93754905  0.12099895  0.07720890    -0.58700
O618        O  0.55321975  0.12363771  0.08055014    -0.57100
O619        O  0.00050884  0.17182032  0.08907206    -0.56300
O620        O  0.97052726  0.42244921  0.10539471    -0.57500
C621        C  0.56937692  0.41252827  0.09295724     0.75100
O622        O  0.00584199  0.34810951  0.04393518    -0.58600
C623        C  0.94549319  0.40850102  0.09620164     0.75100
C624        C  0.50290012  0.45235156  0.03109301     0.77500
Cd625      Cd  0.00689927  0.40163981  0.07026397     1.37500
O626        O  0.54405117  0.40951098  0.10668409    -0.57500
O627        O  0.99898206  0.45931517  0.05486780    -0.56300
C628        C  0.00855047  0.32916395  0.06323168     0.77500
O629        O  0.00861338  0.42166516  0.02515468    -0.58700
O630        O  0.56545413  0.41187892  0.06881076    -0.57100
O631        O  0.94889068  0.39240511  0.07500606    -0.57100
O632        O  0.51076430  0.34380611  0.08501774    -0.56300
C633        C  0.98205719  0.23851421  0.04890400    -0.01500
C634        C  0.00500119  0.22044486  0.06274935     0.08200
C635        C  0.53065341  0.23799369  0.07471269    -0.01600
C636        C  0.53261672  0.27348310  0.07373590    -0.01600
C637        C  0.00876348  0.29177629  0.06101896     0.08300
C638        C  0.98371840  0.27415075  0.04828192    -0.01800
Br639      Br  0.94986010  0.29881510  0.03213570    -0.00400
Br640      Br  0.94693623  0.21469551  0.03242565    -0.00500
Br641      Br  0.56845329  0.29692759  0.08962833    -0.00400
Br642      Br  0.56367107  0.21341172  0.09213538    -0.00400
C643        C  0.64810253  0.11016014  0.10947356    -0.01500
C644        C  0.65022445  0.10895670  0.13661285     0.08200
C645        C  0.62168135  0.10541974  0.15166633    -0.01600
C646        C  0.59140954  0.10380037  0.13976541    -0.01600
C647        C  0.58935353  0.10445574  0.11257254     0.08300
C648        C  0.61801914  0.10680981  0.09749869    -0.01800
Br649      Br  0.61681459  0.10448244  0.06019029    -0.00400
Br650      Br  0.68589353  0.11987963  0.08845111    -0.00500
Br651      Br  0.55287146  0.10320321  0.16129343    -0.00400
Br652      Br  0.62342732  0.10247587  0.18878447    -0.00400
C653        C  0.88604199  0.08469386  0.12200787    -0.01500
C654        C  0.90072370  0.11439257  0.11259271     0.08200
C655        C  0.88382235  0.14521692  0.11375860    -0.01600
C656        C  0.85253203  0.14637675  0.12459826    -0.01600
C657        C  0.83788669  0.11666896  0.13394154     0.08300
C658        C  0.85447453  0.08577708  0.13233490    -0.01800
Br659      Br  0.83378148  0.04497454  0.14424361    -0.00400
Br660      Br  0.90875425  0.04232828  0.12007043    -0.00500
Br661      Br  0.82942703  0.18855412  0.12631168    -0.00400
Br662      Br  0.90402586  0.18620694  0.10148481    -0.00400
C663        C  0.60638809  0.43544403  0.12730545    -0.01500
C664        C  0.60189812  0.41593545  0.10444160     0.08200
C665        C  0.62855166  0.39887461  0.09298821    -0.01600
C666        C  0.65908109  0.40092883  0.10445878    -0.01600
C667        C  0.66335405  0.41985829  0.12757098     0.08300
C668        C  0.63693504  0.43738096  0.13876304    -0.01800
Br669      Br  0.64265709  0.46529275  0.16941120    -0.00400
Br670      Br  0.57108941  0.46066280  0.14280077    -0.00500
Br671      Br  0.69443618  0.37546510  0.08930006    -0.00400
Br672      Br  0.62331205  0.37018841  0.06261005    -0.00400
C673        C  0.86608769  0.38137854  0.12680622    -0.01500
C674        C  0.85172903  0.41289265  0.13261386     0.08200
C675        C  0.86866275  0.44307423  0.12714476    -0.01600
C676        C  0.89972477  0.44175626  0.11576385    -0.01600
C677        C  0.91379619  0.41023360  0.10953222     0.08300
C678        C  0.89701193  0.38004957  0.11530386    -0.01800
Br679      Br  0.91692235  0.33670356  0.10840328    -0.00400
Br680      Br  0.84279048  0.33985091  0.13351058    -0.00500
Br681      Br  0.92247618  0.48316343  0.10785334    -0.00400
Br682      Br  0.84967902  0.48623758  0.13585974    -0.00400
C683        C  0.76986774  0.28599173  0.19330989    -0.01500
C684        C  0.74623508  0.30354768  0.17972923     0.08200
C685        C  0.72100044  0.28527464  0.16772854    -0.01600
C686        C  0.71963213  0.24980665  0.16907190    -0.01600
C687        C  0.74396854  0.23220775  0.18170534     0.08300
C688        C  0.76886991  0.25036063  0.19412515    -0.01800
Br689      Br  0.80335412  0.22642241  0.21009731    -0.00400
Br690      Br  0.80556192  0.31030849  0.20854551    -0.00500
Br691      Br  0.68398271  0.22520403  0.15378757    -0.00400
Br692      Br  0.68817089  0.30853316  0.14912919    -0.00400
C693        C  0.52145013  0.99749792  0.48498492    -0.01500
C694        C  0.99418335  0.97617145  0.48272647     0.08200
C695        C  0.96758882  0.98068816  0.49971120    -0.01600
C696        C  0.96768670  0.00755059  0.01801900    -0.01600
C697        C  0.99459757  0.02954024  0.01967194     0.08300
C698        C  0.52166919  0.02405824  0.50342449    -0.01800
Br699      Br  0.55969387  0.05210382  0.50704155    -0.00400
Br700      Br  0.55924768  0.98941800  0.46353843    -0.00500
Br701      Br  0.93000222  0.01564751  0.03954114    -0.00400
Br702      Br  0.93029626  0.95132269  0.49704727    -0.00400
C703        C  0.52556151  0.51031714  0.47584741    -0.01500
C704        C  0.49878424  0.53202979  0.47569977     0.08200
C705        C  0.97269015  0.52647905  0.99284485    -0.01600
C706        C  0.97393982  0.50029999  0.01085862    -0.01600
C707        C  0.50103591  0.47895236  0.01141482     0.08300
C708        C  0.52666459  0.48381298  0.49358600    -0.01800
Br709      Br  0.56427941  0.45549387  0.49428053    -0.00400
Br710      Br  0.56146133  0.51772579  0.45242084    -0.00500
Br711      Br  0.93774461  0.49283357  0.03395616    -0.00400
Br712      Br  0.93426445  0.55328356  0.99033632    -0.00400
C713        C  0.51757249  0.77835442  0.44045987    -0.01500
C714        C  0.99046878  0.79458605  0.43048610     0.08200
C715        C  0.96330007  0.77523775  0.42318098    -0.01600
C716        C  0.96375676  0.73975118  0.42484295    -0.01600
C717        C  0.99159154  0.72337099  0.43330575     0.08300
C718        C  0.51815842  0.74277641  0.44181063    -0.01800
Br719      Br  0.55627854  0.72056369  0.45349238    -0.00400
Br720      Br  0.55501114  0.80460853  0.45023796    -0.00500
Br721      Br  0.92586472  0.71346644  0.41618109    -0.00400
Br722      Br  0.92525102  0.79737776  0.41114674    -0.00400
C723        C  0.77599109  0.54545083  0.24415024    -0.01500
C724        C  0.74947029  0.54760199  0.26148747     0.08200
C725        C  0.72407445  0.52376863  0.25962518    -0.01600
C726        C  0.72567971  0.49727342  0.24110422    -0.01600
C727        C  0.75256204  0.49457680  0.22421282     0.08300
C728        C  0.77746071  0.51907494  0.22548987    -0.01800
Br729      Br  0.81456269  0.51557133  0.20267310    -0.00400
Br730      Br  0.81141120  0.57732586  0.24687924    -0.00500
Br731      Br  0.69019488  0.46558773  0.23806760    -0.00400
Br732      Br  0.68623270  0.52835000  0.28159298    -0.00400
C733        C  0.65257267  0.60371618  0.38791548    -0.01500
C734        C  0.65621534  0.60939969  0.36118950     0.08200
C735        C  0.62845756  0.61244424  0.34599552    -0.01600
C736        C  0.59752398  0.61188755  0.35758674    -0.01600
C737        C  0.59389370  0.60719685  0.38443495     0.08300
C738        C  0.62155929  0.60214562  0.39938240    -0.01800
Br739      Br  0.61727318  0.59167572  0.43553210    -0.00400
Br740      Br  0.68990183  0.60002149  0.40943352    -0.00500
Br741      Br  0.56039977  0.61970419  0.33654452    -0.00400
Br742      Br  0.63238669  0.61610320  0.30891212    -0.00400
C743        C  0.87109136  0.63091162  0.34975948    -0.01500
C744        C  0.84513702  0.61093276  0.35911988     0.08200
C745        C  0.85021171  0.58878323  0.37966458    -0.01600
C746        C  0.88065484  0.58728247  0.39117251    -0.01600
C747        C  0.90629872  0.60779250  0.38217659     0.08300
C748        C  0.90140747  0.62958850  0.36141669    -0.01800
Br749      Br  0.93547887  0.65979580  0.35005454    -0.00400
Br750      Br  0.86529514  0.66151692  0.32166106    -0.00500
Br751      Br  0.88748778  0.55610063  0.41870893    -0.00400
Br752      Br  0.81612161  0.55882105  0.39115765    -0.00400
C753        C  0.77435771  0.99874634  0.25001475    -0.01500
C754        C  0.74608317  0.99012575  0.26387271     0.08200
C755        C  0.71772977  0.00878938  0.26066256    -0.01600
C756        C  0.71756508  0.03590573  0.24353067    -0.01600
C757        C  0.74594212  0.04485852  0.22994293     0.08300
C758        C  0.77435988  0.02629725  0.23324955    -0.01800
Br759      Br  0.81363634  0.03951669  0.21555595    -0.00400
Br760      Br  0.81334441  0.97355401  0.25455177    -0.00500
Br761      Br  0.67789681  0.05919377  0.23738981    -0.00400
Br762      Br  0.67862731  0.99604615  0.27880997    -0.00400
C763        C  0.84125460  0.91858230  0.38478062    -0.01500
C764        C  0.83877217  0.91968602  0.35763119     0.08200
C765        C  0.86731968  0.92113403  0.34228333    -0.01600
C766        C  0.89776636  0.91949533  0.35381816    -0.01600
C767        C  0.90009808  0.91840535  0.38095939     0.08300
C768        C  0.87168986  0.91967802  0.39633221    -0.01800
Br769      Br  0.87409128  0.92492892  0.43344488    -0.00400
Br770      Br  0.80353381  0.91203137  0.40655630    -0.00500
Br771      Br  0.93591651  0.91679883  0.33193977    -0.00400
Br772      Br  0.86541867  0.92600613  0.30527203    -0.00400
C773        C  0.61492998  0.91085166  0.39587065    -0.01500
C774        C  0.58698823  0.91259493  0.38069372     0.08200
C775        C  0.59041544  0.91594335  0.35366075    -0.01600
C776        C  0.62132767  0.91686796  0.34195464    -0.01600
C777        C  0.64924843  0.91429247  0.35710075     0.08300
C778        C  0.64577147  0.91110504  0.38412845    -0.01800
Br779      Br  0.68294925  0.90423084  0.40535521    -0.00400
Br780      Br  0.61161979  0.90939890  0.43313860    -0.00500
Br781      Br  0.62480110  0.92209178  0.30496446    -0.00400
Br782      Br  0.55295026  0.91756505  0.33202532    -0.00400
C783        C  0.77870662  0.75104384  0.32161231    -0.01500
C784        C  0.75385186  0.73096492  0.31086185     0.08200
C785        C  0.72848159  0.74665895  0.29793046    -0.01600
C786        C  0.72709833  0.78226638  0.29707928    -0.01600
C787        C  0.75115624  0.80219400  0.30902497     0.08300
C788        C  0.77755046  0.78646714  0.32040617    -0.01800
Br789      Br  0.81269454  0.81358099  0.33395291    -0.00400
Br790      Br  0.81464400  0.73036986  0.33806378    -0.00500
Br791      Br  0.69094751  0.80360443  0.28134421    -0.00400
Br792      Br  0.69392765  0.71970837  0.28347243    -0.00400
O793        O  0.70605268  0.92820454  0.85487689    -0.57500
C794        C  0.80668871  0.91774980  0.84525606     0.75100
O795        O  0.74399196  0.85855371  0.79313059    -0.58600
C796        C  0.68185509  0.91380633  0.84471206     0.75100
C797        C  0.74625125  0.96272145  0.78266895     0.77500
Cd798      Cd  0.74504595  0.91065651  0.82059144     1.37500
O799        O  0.78164202  0.93109577  0.85520736    -0.57500
O800        O  0.74134875  0.96891502  0.80638250    -0.56300
C801        C  0.74770843  0.83918229  0.81208745     0.77500
O802        O  0.75076899  0.93209443  0.77602855    -0.58700
O803        O  0.80284428  0.90201130  0.82407960    -0.57100
O804        O  0.68709103  0.89847969  0.82343562    -0.57100
O805        O  0.74905216  0.85299370  0.83430591    -0.56300
O806        O  0.78735870  0.61643501  0.86123222    -0.57500
C807        C  0.68872602  0.61354428  0.84916264     0.75100
O808        O  0.74900341  0.67280684  0.79648905    -0.58600
C809        C  0.81284090  0.61362588  0.84758691     0.75100
C810        C  0.74910620  0.57349916  0.78243967     0.77500
Cd811      Cd  0.75097004  0.62258159  0.82410479     1.37500
O812        O  0.71225188  0.59487518  0.85442538    -0.57500
O813        O  0.74506189  0.56535791  0.80573963    -0.56300
C814        C  0.75332104  0.69399540  0.81482081     0.77500
O815        O  0.75331201  0.60467353  0.77816337    -0.58700
O816        O  0.69437402  0.63628428  0.83287095    -0.57100
O817        O  0.80933653  0.61382914  0.82344338    -0.57100
O818        O  0.75678046  0.68202031  0.83704718    -0.56300
O819        O  0.96411040  0.60471865  0.88292278    -0.57500
C820        C  0.56145564  0.60893073  0.89694536     0.75100
O821        O  0.49977161  0.66677850  0.94863353    -0.58600
C822        C  0.93765979  0.60790856  0.89528656     0.75100
C823        C  0.49801279  0.56020730  0.95737898     0.77500
Cd824      Cd  0.99830123  0.61438766  0.92089565     1.37500
O825        O  0.53688254  0.59496724  0.88705705    -0.57500
O826        O  0.00069426  0.55490184  0.93332365    -0.56300
C827        C  0.99413869  0.68626027  0.93009160     0.77500
O828        O  0.99492895  0.59076591  0.96488886    -0.58700
O829        O  0.55675964  0.62508935  0.91797214    -0.57100
O830        O  0.93938492  0.61222873  0.91947059    -0.57100
O831        O  0.49091006  0.67249590  0.90805952    -0.56300
O832        O  0.53047721  0.92609580  0.88581945    -0.57500
C833        C  0.93170388  0.91380148  0.89338054     0.75100
O834        O  0.99546367  0.85236601  0.94521989    -0.58600
C835        C  0.55451656  0.90955465  0.89308412     0.75100
C836        C  0.99297942  0.95085827  0.96144147     0.77500
Cd837      Cd  0.99224304  0.90310470  0.91864243     1.37500
O838        O  0.95738835  0.92786913  0.88545667    -0.57500
O839        O  0.99879470  0.95923603  0.93846967    -0.56300
C840        C  0.99097907  0.83152827  0.92667518     0.77500
O841        O  0.98638936  0.92000700  0.96500019    -0.58700
O842        O  0.93438808  0.89502402  0.91263407    -0.57100
O843        O  0.54932419  0.88997034  0.91166566    -0.57100
O844        O  0.98709498  0.84381134  0.90454586    -0.56300
O845        O  0.79559647  0.42741947  0.63351754    -0.57500
C846        C  0.69467748  0.41913658  0.64097699     0.75100
O847        O  0.75289905  0.36129854  0.69492659    -0.58600
C848        C  0.81913140  0.41393601  0.64452231     0.75100
C849        C  0.75423766  0.46643577  0.70502663     0.77500
Cd850      Cd  0.75508280  0.41194880  0.66717585     1.37500
O851        O  0.72141682  0.42345330  0.62927156    -0.57500
O852        O  0.75785119  0.47179185  0.68118745    -0.56300
C853        C  0.74920348  0.34051361  0.67620469     0.77500
O854        O  0.75161451  0.43580749  0.71155400    -0.58700
O855        O  0.69604347  0.41303810  0.66478749    -0.57100
O856        O  0.81324876  0.40054566  0.66606355    -0.57100
O857        O  0.74840075  0.35288109  0.65392505    -0.56300
O858        O  0.70728618  0.09904059  0.63976710    -0.57500
C859        C  0.80597087  0.11832062  0.64668563     0.75100
O860        O  0.74635066  0.17602636  0.69889240    -0.58600
C861        C  0.68207658  0.11273312  0.64908710     0.75100
C862        C  0.74544574  0.07199089  0.71091486     0.77500
Cd863      Cd  0.74427096  0.12304720  0.67237103     1.37500
O864        O  0.78047272  0.10926876  0.63524358    -0.57500
O865        O  0.75201614  0.06580494  0.68743199    -0.56300
C866        C  0.74472376  0.19494847  0.67946316     0.77500
O867        O  0.73837505  0.10224952  0.71704727    -0.58700
O868        O  0.80294519  0.12901555  0.66975102    -0.57100
O869        O  0.68568016  0.13047492  0.66940205    -0.57100
O870        O  0.74340417  0.18045722  0.65752029    -0.56300
O871        O  0.53285681  0.08976934  0.60833147    -0.57500
C872        C  0.93313207  0.11312788  0.60052659     0.75100
O873        O  0.99831704  0.16259088  0.54788708    -0.58600
C874        C  0.55744813  0.10565150  0.60002110     0.75100
C875        C  0.99472438  0.05794578  0.53860332     0.77500
Cd876      Cd  0.99579226  0.11272826  0.57607506     1.37500
O877        O  0.95774631  0.10442936  0.61283440    -0.57500
O878        O  0.99050277  0.05308190  0.56243316    -0.56300
C879        C  0.00107305  0.18367547  0.56656149     0.77500
O880        O  0.99935442  0.08826421  0.53186751    -0.58700
O881        O  0.93754873  0.12099917  0.57720905    -0.58700
O882        O  0.55321944  0.12363806  0.58055013    -0.57100
O883        O  0.00050884  0.17182026  0.58907217    -0.56300
O884        O  0.97052720  0.42244938  0.60539490    -0.57500
C885        C  0.56937691  0.41252831  0.59295719     0.75100
O886        O  0.00584160  0.34810958  0.54393541    -0.58600
C887        C  0.94549311  0.40850099  0.59620180     0.75100
C888        C  0.50290015  0.45235159  0.53109305     0.77500
Cd889      Cd  0.00689918  0.40163991  0.57026417     1.37500
O890        O  0.54405115  0.40951118  0.60668411    -0.57500
O891        O  0.99898197  0.45931526  0.55486794    -0.56300
C892        C  0.00855036  0.32916411  0.56323182     0.77500
O893        O  0.00861329  0.42166515  0.52515488    -0.58700
O894        O  0.56545415  0.41187886  0.56881078    -0.57100
O895        O  0.94889066  0.39240504  0.57500636    -0.57100
O896        O  0.51076436  0.34380621  0.58501769    -0.56300
C897        C  0.98205692  0.23851428  0.54890417    -0.01500
C898        C  0.00500108  0.22044495  0.56274948     0.08200
C899        C  0.53065328  0.23799385  0.57471263    -0.01600
C900        C  0.53261670  0.27348311  0.57373573    -0.01600
C901        C  0.00876334  0.29177632  0.56101908     0.08300
C902        C  0.98371817  0.27415088  0.54828214    -0.01800
Br903      Br  0.94985976  0.29881526  0.53213610    -0.00400
Br904      Br  0.94693601  0.21469566  0.53242581    -0.00500
Br905      Br  0.56845349  0.29692758  0.58962782    -0.00400
Br906      Br  0.56367094  0.21341183  0.59213536    -0.00400
C907        C  0.64810219  0.11016056  0.60947363    -0.01500
C908        C  0.65022420  0.10895687  0.63661282     0.08200
C909        C  0.62168100  0.10541969  0.65166637    -0.01600
C910        C  0.59140917  0.10380028  0.63976550    -0.01600
C911        C  0.58935339  0.10445583  0.61257235     0.08300
C912        C  0.61801879  0.10681011  0.59749880    -0.01800
Br913      Br  0.61681439  0.10448287  0.56019032    -0.00400
Br914      Br  0.68589319  0.11988056  0.58845127    -0.00500
Br915      Br  0.55287110  0.10320287  0.66129339    -0.00400
Br916      Br  0.62342694  0.10247554  0.68878448    -0.00400
C917        C  0.88604166  0.08469397  0.62200787    -0.01500
C918        C  0.90072336  0.11439267  0.61259289     0.08200
C919        C  0.88382209  0.14521711  0.61375895    -0.01600
C920        C  0.85253174  0.14637685  0.62459866    -0.01600
C921        C  0.83788639  0.11666901  0.63394172     0.08300
C922        C  0.85447416  0.08577709  0.63233493    -0.01800
Br923      Br  0.83378113  0.04497451  0.64424356    -0.00400
Br924      Br  0.90875385  0.04232836  0.62007023    -0.00500
Br925      Br  0.82942673  0.18855426  0.62631240    -0.00400
Br926      Br  0.90402552  0.18620719  0.60148535    -0.00400
C927        C  0.60638807  0.43544421  0.62730540    -0.01500
C928        C  0.60189819  0.41593546  0.60444158     0.08200
C929        C  0.62855161  0.39887465  0.59298825    -0.01600
C930        C  0.65908115  0.40092871  0.60445874    -0.01600
C931        C  0.66335384  0.41985846  0.62757117     0.08300
C932        C  0.63693515  0.43738098  0.63876293    -0.01800
Br933      Br  0.64265717  0.46529290  0.66941117    -0.00400
Br934      Br  0.57108952  0.46066321  0.64280058    -0.00500
Br935      Br  0.69443610  0.37546504  0.58930009    -0.00400
Br936      Br  0.62331206  0.37018830  0.56261016    -0.00400
C937        C  0.86608760  0.38137869  0.62680644    -0.01500
C938        C  0.85172902  0.41289250  0.63261403     0.08200
C939        C  0.86866261  0.44307437  0.62714488    -0.01600
C940        C  0.89972469  0.44175621  0.61576398    -0.01600
C941        C  0.91379612  0.41023371  0.60953247     0.08300
C942        C  0.89701190  0.38004952  0.61530409    -0.01800
Br943      Br  0.91692241  0.33670358  0.60840366    -0.00400
Br944      Br  0.84279048  0.33985095  0.63351079    -0.00500
Br945      Br  0.92247601  0.48316343  0.60785335    -0.00400
Br946      Br  0.84967890  0.48623757  0.63585990    -0.00400
C947        C  0.76986767  0.28599172  0.69330997    -0.01500
C948        C  0.74623503  0.30354774  0.67972941     0.08200
C949        C  0.72100027  0.28527472  0.66772875    -0.01600
C950        C  0.71963190  0.24980675  0.66907204    -0.01600
C951        C  0.74396847  0.23220774  0.68170549     0.08300
C952        C  0.76886979  0.25036064  0.69412514    -0.01800
Br953      Br  0.80335409  0.22642228  0.71009717    -0.00400
Br954      Br  0.80556198  0.31030840  0.70854549    -0.00500
Br955      Br  0.68398252  0.22520409  0.65378774    -0.00400
Br956      Br  0.68817068  0.30853330  0.64912954    -0.00400
C957        C  0.52145012  0.99749775  0.98498491    -0.01500
C958        C  0.99418350  0.97617141  0.98272664     0.08200
C959        C  0.96758896  0.98068796  0.99971134    -0.01600
C960        C  0.96768635  0.00755068  0.51801881    -0.01600
C961        C  0.99459753  0.02954052  0.51967180     0.08300
C962        C  0.52166935  0.02405802  0.00342446    -0.01800
Br963      Br  0.55969397  0.05210367  0.00704140    -0.00400
Br964      Br  0.55924763  0.98941790  0.96353828    -0.00500
Br965      Br  0.93000190  0.01564781  0.53954085    -0.00400
Br966      Br  0.93029640  0.95132260  0.99704745    -0.00400
C967        C  0.52556143  0.51031713  0.97584739    -0.01500
C968        C  0.49878416  0.53202974  0.97569971     0.08200
C969        C  0.97269002  0.52647909  0.49284501    -0.01600
C970        C  0.97393977  0.50029999  0.51085876    -0.01600
C971        C  0.50103596  0.47895239  0.51141480     0.08300
C972        C  0.52666452  0.48381295  0.99358592    -0.01800
Br973      Br  0.56427930  0.45549383  0.99428048    -0.00400
Br974      Br  0.56146125  0.51772587  0.95242084    -0.00500
Br975      Br  0.93774449  0.49283357  0.53395629    -0.00400
Br976      Br  0.93426440  0.55328358  0.49033637    -0.00400
C977        C  0.51757229  0.77835435  0.94045985    -0.01500
C978        C  0.99046860  0.79458598  0.93048602     0.08200
C979        C  0.96329999  0.77523787  0.92318080    -0.01600
C980        C  0.96375671  0.73975111  0.92484270    -0.01600
C981        C  0.99159155  0.72337116  0.93330559     0.08300
C982        C  0.51815834  0.74277642  0.94181058    -0.01800
Br983      Br  0.55627846  0.72056375  0.95349239    -0.00400
Br984      Br  0.55501099  0.80460853  0.95023796    -0.00500
Br985      Br  0.92586486  0.71346639  0.91618053    -0.00400
Br986      Br  0.92525090  0.79737770  0.91114654    -0.00400
C987        C  0.77599074  0.54545085  0.74415016    -0.01500
C988        C  0.74947021  0.54760222  0.76148740     0.08200
C989        C  0.72407414  0.52376860  0.75962515    -0.01600
C990        C  0.72567957  0.49727352  0.74110416    -0.01600
C991        C  0.75256170  0.49457677  0.72421284     0.08300
C992        C  0.77746058  0.51907505  0.72548979    -0.01800
Br993      Br  0.81456253  0.51557130  0.70267311    -0.00400
Br994      Br  0.81141087  0.57732600  0.74687918    -0.00500
Br995      Br  0.69019472  0.46558767  0.73806760    -0.00400
Br996      Br  0.68623251  0.52834992  0.78159299    -0.00400
C997        C  0.65257254  0.60371637  0.88791531    -0.01500
C998        C  0.65621536  0.60939970  0.86118983     0.08200
C999        C  0.62845747  0.61244439  0.84599534    -0.01600
C1000       C  0.59752391  0.61188758  0.85758681    -0.01600
C1001       C  0.59389360  0.60719695  0.88443479     0.08300
C1002       C  0.62155920  0.60214571  0.89938248    -0.01800
Br1003     Br  0.61727308  0.59167588  0.93553209    -0.00400
Br1004     Br  0.68990172  0.60002167  0.90943353    -0.00500
Br1005     Br  0.56039966  0.61970435  0.83654450    -0.00400
Br1006     Br  0.63238655  0.61610312  0.80891210    -0.00400
C1007       C  0.87109130  0.63091179  0.84975948    -0.01500
C1008       C  0.84513709  0.61093295  0.85911972     0.08200
C1009       C  0.85021169  0.58878328  0.87966448    -0.01600
C1010       C  0.88065485  0.58728264  0.89117242    -0.01600
C1011       C  0.90629863  0.60779264  0.88217658     0.08300
C1012       C  0.90140746  0.62958873  0.86141667    -0.01800
Br1013     Br  0.93547883  0.65979607  0.85005467    -0.00400
Br1014     Br  0.86529519  0.66151715  0.82166101    -0.00500
Br1015     Br  0.88748777  0.55610070  0.91870876    -0.00400
Br1016     Br  0.81612163  0.55882107  0.89115733    -0.00400
C1017       C  0.77435752  0.99874657  0.75001491    -0.01500
C1018       C  0.74608304  0.99012593  0.76387288     0.08200
C1019       C  0.71772955  0.00878955  0.76066269    -0.01600
C1020       C  0.71756493  0.03590586  0.74353080    -0.01600
C1021       C  0.74594180  0.04485871  0.72994303     0.08300
C1022       C  0.77435970  0.02629735  0.73324964    -0.01800
Br1023     Br  0.81363604  0.03951682  0.71555596    -0.00400
Br1024     Br  0.81334429  0.97355437  0.75455196    -0.00500
Br1025     Br  0.67789660  0.05919388  0.73738985    -0.00400
Br1026     Br  0.67862714  0.99604632  0.77881016    -0.00400
C1027       C  0.84125433  0.91858255  0.88478076    -0.01500
C1028       C  0.83877208  0.91968621  0.85763129     0.08200
C1029       C  0.86731928  0.92113419  0.84228342    -0.01600
C1030       C  0.89776617  0.91949546  0.85381816    -0.01600
C1031       C  0.90009774  0.91840557  0.88095943     0.08300
C1032       C  0.87168980  0.91967834  0.89633225    -0.01800
Br1033     Br  0.87409120  0.92492935  0.93344493    -0.00400
Br1034     Br  0.80353368  0.91203181  0.90655653    -0.00500
Br1035     Br  0.93591622  0.91679875  0.83193977    -0.00400
Br1036     Br  0.86541843  0.92600628  0.80527207    -0.00400
C1037       C  0.61492964  0.91085169  0.89587064    -0.01500
C1038       C  0.58698815  0.91259478  0.88069373     0.08200
C1039       C  0.59041511  0.91594307  0.85366073    -0.01600
C1040       C  0.62132753  0.91686788  0.84195463    -0.01600
C1041       C  0.64924804  0.91429245  0.85710075     0.08300
C1042       C  0.64577131  0.91110499  0.88412843    -0.01800
Br1043     Br  0.68294896  0.90423076  0.90535521    -0.00400
Br1044     Br  0.61161961  0.90939908  0.93313859    -0.00500
Br1045     Br  0.62480092  0.92209193  0.80496446    -0.00400
Br1046     Br  0.55295004  0.91756424  0.83202527    -0.00400
C1047       C  0.77870643  0.75104402  0.82161222    -0.01500
C1048       C  0.75385203  0.73096506  0.81086190     0.08200
C1049       C  0.72848148  0.74665905  0.79793027    -0.01600
C1050       C  0.72709829  0.78226647  0.79707920    -0.01600
C1051       C  0.75115605  0.80219416  0.80902488     0.08300
C1052       C  0.77755039  0.78646731  0.82040613    -0.01800
Br1053     Br  0.81269436  0.81358120  0.83395288    -0.00400
Br1054     Br  0.81464392  0.73037016  0.83806379    -0.00500
Br1055     Br  0.69094741  0.80360447  0.78134403    -0.00400
Br1056     Br  0.69392771  0.71970847  0.78347222    -0.00400
loop_ 
_geom_bond_atom_site_label_1 
_geom_bond_atom_site_label_2 
_geom_bond_distance 
_geom_bond_site_symmetry_2 
_ccdc_geom_bond_type 
O1            C4   1.267       .  A
O1           Cd6   2.476       .  S
C2           O11   1.262       .  A
C2            O7   1.268       .  A
C2          C236   1.489       .  S
O3            C9   1.270       .  A
O3           Cd6   2.480       .  S
C4           O12   1.264       .  A
C4          C249   1.489       .  S
C5           O10   1.267       .  A
C5            O8   1.262       .  A
C5          C226   1.472       .  S
Cd6          O13   2.409       .  S
Cd6          O12   2.452       .  S
Cd6          O11   2.437       .  S
Cd6           O7   2.488       .  S
Cd6          O10   2.483       .  S
Cd6           O8   2.439       .  S
C9           O13   1.266       .  A
C9          C259   1.475       .  S
O14          C17   1.267       .  A
O14         Cd19   2.484       .  S
C15          O24   1.263       .  A
C15          O20   1.266       .  A
C15         C206   1.486       .  S
O16          C22   1.268       .  A
O16         Cd19   2.474       .  S
C17          O25   1.262       .  A
C17         C216   1.483       .  S
C18          O23   1.266       .  A
C18          O21   1.264       .  A
C18         C196   1.477       .  S
Cd19         O26   2.441       .  S
Cd19         O25   2.451       .  S
Cd19         O24   2.449       .  S
Cd19         O20   2.491       .  S
Cd19         O23   2.471       .  S
Cd19         O21   2.448       .  S
C22          O26   1.265       .  A
C22         C256   1.480       .  S
O27          C30   1.268       .  A
O27         Cd32   2.468       .  S
C28          O37   1.265       .  A
C28          O33   1.267       .  A
C28         C209   1.486       .  S
O29         C563   1.270       .  A
O29        Cd560   2.498       .  S
C30          O38   1.265       .  A
C30         C219   1.479       .  S
C31         O564   1.268       .  A
C31         O562   1.263   1_655  A
C31         C176   1.479       .  S
Cd32         O38   2.449       .  S
Cd32         O36   2.483       .  S
Cd32         O34   2.454       .  S
Cd32        O557   2.498       .  S
Cd32        O567   2.428       .  S
Cd32        O565   2.463       .  S
Cd32        O561   2.471       .  S
O33        Cd560   2.471   1_455  S
O34         C559   1.263       .  A
C35         O557   1.270       .  A
C35         O567   1.264       .  A
C35         C189   1.478       .  S
O36         C559   1.268       .  A
O37        Cd560   2.463   1_455  S
O39         C563   1.264       .  A
O39        Cd560   2.428       .  S
O40          C43   1.265       .  A
O40        Cd573   2.487   1_455  S
C41          O50   1.263       .  A
C41          O46   1.264       .  A
C41         C239   1.486       .  S
O42          C48   1.268       .  A
O42         Cd45   2.462       .  S
C43          O51   1.262       .  A
C43         C246   1.488       .  S
C44          O49   1.264       .  A
C44          O47   1.261       .  A
C44         C166   1.475       .  S
Cd45         O52   2.449       .  S
Cd45         O50   2.445       .  S
Cd45         O46   2.488       .  S
Cd45         O49   2.489       .  S
Cd45         O47   2.441       .  S
Cd45        O568   2.487       .  S
Cd45        O579   2.450       .  S
C48          O52   1.268       .  A
C48         C186   1.477       .  S
O51        Cd573   2.450   1_455  S
O53          C56   1.267       .  A
O53         Cd58   2.484       .  S
C54          O63   1.265       .  A
C54          O59   1.268       .  A
C54         C139   1.486       .  S
O55          C61   1.269       .  A
O55         Cd58   2.489       .  S
C56          O64   1.264       .  A
C56         C146   1.479       .  S
C57          O62   1.267       .  A
C57          O60   1.264       .  A
C57         C199   1.478       .  S
Cd58         O65   2.435       .  S
Cd58         O64   2.460       .  S
Cd58         O63   2.458       .  S
Cd58         O59   2.482       .  S
Cd58         O62   2.471       .  S
Cd58         O60   2.463       .  S
C61          O65   1.264       .  A
C61         C156   1.480       .  S
O66          C69   1.267       .  A
O66         Cd71   2.472       .  S
C67          O76   1.265       .  A
C67          O72   1.267       .  A
C67         C129   1.472       .  S
O68          C74   1.270       .  A
O68         Cd71   2.483       .  S
C69          O77   1.263       .  A
C69         C116   1.487       .  S
C70          O75   1.267       .  A
C70          O73   1.262       .  A
C70         C229   1.472       .  S
Cd71         O78   2.412       .  S
Cd71         O77   2.461       .  S
Cd71         O76   2.447       .  S
Cd71         O72   2.476       .  S
Cd71         O75   2.480       .  S
Cd71         O73   2.434       .  S
C74          O78   1.265       .  A
C74         C159   1.476       .  S
O79          C82   1.268       .  A
O79        Cd612   2.482   1_455  S
C80          O89   1.264       .  A
C80          O85   1.268       .  A
C80         C126   1.475       .  S
O81          C87   1.270       .  A
O81         Cd84   2.478       .  S
C82          O90   1.262       .  A
C82         C119   1.487       .  S
C83          O88   1.267       .  A
C83          O86   1.263       .  A
C83         C169   1.476       .  S
Cd84         O91   2.425       .  S
Cd84         O89   2.443       .  S
Cd84         O85   2.479       .  S
Cd84         O88   2.471       .  S
Cd84         O86   2.457       .  S
Cd84        O607   2.482       .  S
Cd84        O618   2.433       .  S
C87          O91   1.266       .  A
C87         C106   1.478       .  S
O90        Cd612   2.433   1_455  S
O92          C95   1.268       .  A
O92         Cd97   2.478       .  S
C93         O102   1.265       .  A
C93          O98   1.266       .  A
C93         C136   1.489       .  S
O94         C100   1.269       .  A
O94         Cd97   2.495       .  S
C95         O103   1.265       .  A
C95         C149   1.478       .  S
C96         O629   1.269       .  A
C96         O627   1.265   1_455  A
C96         C179   1.483       .  S
Cd97        O103   2.442       .  S
Cd97        O101   2.483       .  S
Cd97         O99   2.457       .  S
Cd97        O632   2.433       .  S
Cd97        O630   2.461       .  S
Cd97        O626   2.471       .  S
O98        Cd625   2.471       .  S
O99         C624   1.265       .  A
C100        O632   1.263       .  A
C100        C109   1.480       .  S
O101        C624   1.269       .  A
O102       Cd625   2.461       .  S
O104        C628   1.263       .  A
O104       Cd625   2.433       .  S
C105        C106   1.410       .  A
C105        C110   1.411       .  A
C105       Br112   1.931       .  S
C106        C635   1.411       .  A
C107        C108   1.406       .  A
C107        C634   1.411       .  A
C107       Br114   1.934       .  S
C108        C637   1.412       .  A
C108       Br113   1.933       .  S
C109        C110   1.412       .  A
C109        C636   1.412       .  A
C110       Br111   1.930       .  S
C115        C116   1.413       .  A
C115        C120   1.408       .  A
C115       Br122   1.935       .  S
C116        C117   1.415       .  A
C117        C118   1.410       .  A
C117       Br124   1.932       .  S
C118        C119   1.414       .  A
C118       Br123   1.935       .  S
C119        C120   1.416       .  A
C120       Br121   1.936       .  S
C125        C126   1.410       .  A
C125        C130   1.408       .  A
C125       Br132   1.929       .  S
C126        C127   1.411       .  A
C127        C128   1.407       .  A
C127       Br134   1.932       .  S
C128        C129   1.408       .  A
C128       Br133   1.931       .  S
C129        C130   1.408       .  A
C130       Br131   1.928       .  S
C135        C136   1.415       .  A
C135        C140   1.410       .  A
C135       Br142   1.934       .  S
C136        C137   1.417       .  A
C137        C138   1.410       .  A
C137       Br144   1.936       .  S
C138        C139   1.412       .  A
C138       Br143   1.934       .  S
C139        C140   1.413       .  A
C140       Br141   1.932       .  S
C145        C146   1.411       .  A
C145        C150   1.407       .  A
C145       Br152   1.932       .  S
C146        C147   1.411       .  A
C147        C148   1.410       .  A
C147       Br154   1.928       .  S
C148        C149   1.410       .  A
C148       Br153   1.930       .  S
C149        C150   1.411       .  A
C150       Br151   1.933       .  S
C155        C156   1.413       .  A
C155        C160   1.410       .  A
C155       Br162   1.931       .  S
C156        C157   1.413       .  A
C157        C158   1.406       .  A
C157       Br164   1.933       .  S
C158        C159   1.410       .  A
C158       Br163   1.936       .  S
C159        C160   1.410       .  A
C160       Br161   1.931       .  S
C165        C170   1.405   1_565  A
C165        C694   1.410   1_455  A
C165       Br172   1.933       .  S
C166        C167   1.411       .  A
C166        C693   1.410       .  A
C167        C432   1.410   1_565  A
C167       Br174   1.932       .  S
C168        C169   1.412       .  A
C168        C431   1.410   1_544  A
C168       Br173   1.931       .  S
C169        C962   1.409       .  A
C170        C961   1.409   1_455  A
C170       Br171   1.930       .  S
C175        C176   1.411   1_455  A
C175        C180   1.409       .  A
C175       Br182   1.931       .  S
C176        C969   1.408       .  A
C177        C178   1.410   1_556  A
C177        C968   1.408       .  A
C177       Br184   1.931       .  S
C178        C707   1.414       .  A
C178       Br183   1.930       .  S
C179        C706   1.414   1_455  A
C179        C444   1.412   1_554  A
C180        C443   1.412       .  A
C180       Br181   1.931       .  S
C185        C190   1.410       .  A
C185        C714   1.411   1_455  A
C185       Br192   1.930       .  S
C186        C187   1.410       .  A
C186        C713   1.411       .  A
C187        C188   1.407       .  A
C187       Br194   1.932       .  S
C188        C189   1.411       .  A
C188       Br193   1.932       .  S
C189        C718   1.410       .  A
C190        C717   1.410   1_455  A
C190       Br191   1.929       .  S
C195        C196   1.411       .  A
C195        C200   1.409       .  A
C195       Br202   1.933       .  S
C196        C197   1.411       .  A
C197        C198   1.407       .  A
C197       Br204   1.932       .  S
C198        C199   1.410       .  A
C198       Br203   1.931       .  S
C199        C200   1.412       .  A
C200       Br201   1.930       .  S
C205        C206   1.413       .  A
C205        C210   1.410       .  A
C205       Br212   1.933       .  S
C206        C207   1.414       .  A
C207        C208   1.409       .  A
C207       Br214   1.934       .  S
C208        C209   1.413       .  A
C208       Br213   1.934       .  S
C209        C210   1.414       .  A
C210       Br211   1.932       .  S
C215        C216   1.415       .  A
C215        C220   1.407       .  A
C215       Br222   1.932       .  S
C216        C217   1.412       .  A
C217        C218   1.409       .  A
C217       Br224   1.931       .  S
C218        C219   1.411       .  A
C218       Br223   1.931       .  S
C219        C220   1.411       .  A
C220       Br221   1.935       .  S
C225        C226   1.409       .  A
C225        C230   1.407   1_565  A
C225       Br232   1.929       .  S
C226        C227   1.409   1_565  A
C227        C228   1.406       .  A
C227       Br234   1.931   1_545  S
C228        C229   1.408       .  A
C228       Br233   1.929       .  S
C229        C230   1.410       .  A
C230       Br231   1.930       .  S
C235        C236   1.414       .  A
C235        C240   1.408       .  A
C235       Br242   1.933       .  S
C236        C237   1.418       .  A
C237        C238   1.410       .  A
C237       Br244   1.935       .  S
C238        C239   1.413       .  A
C238       Br243   1.935       .  S
C239        C240   1.413       .  A
C240       Br241   1.935       .  S
C245        C246   1.416       .  A
C245        C250   1.409       .  A
C245       Br252   1.936       .  S
C246        C247   1.415       .  A
C247        C248   1.411       .  A
C247       Br254   1.935       .  S
C248        C249   1.417       .  A
C248       Br253   1.935       .  S
C249        C250   1.414       .  A
C250       Br251   1.935       .  S
C255        C256   1.411       .  A
C255        C260   1.404       .  A
C255       Br262   1.928       .  S
C256        C257   1.413       .  A
C257        C258   1.411       .  A
C257       Br264   1.932       .  S
C258        C259   1.410       .  A
C258       Br263   1.929       .  S
C259        C260   1.409       .  A
C260       Br261   1.936       .  S
O265        C268   1.267       .  A
O265       Cd270   2.476       .  S
C266        O275   1.262       .  A
C266        O271   1.268       .  A
C266        C500   1.489       .  S
O267        C273   1.270       .  A
O267       Cd270   2.480       .  S
C268        O276   1.264       .  A
C268        C513   1.489       .  S
C269        O274   1.267       .  A
C269        O272   1.262       .  A
C269        C490   1.472       .  S
Cd270       O277   2.409       .  S
Cd270       O276   2.452       .  S
Cd270       O275   2.437       .  S
Cd270       O271   2.488       .  S
Cd270       O274   2.483       .  S
Cd270       O272   2.439       .  S
C273        O277   1.266       .  A
C273        C523   1.475       .  S
O278        C281   1.267       .  A
O278       Cd283   2.484       .  S
C279        O288   1.263       .  A
C279        O284   1.266       .  A
C279        C470   1.486       .  S
O280        C286   1.268       .  A
O280       Cd283   2.474       .  S
C281        O289   1.262       .  A
C281        C480   1.483       .  S
C282        O287   1.266       .  A
C282        O285   1.264       .  A
C282        C460   1.477       .  S
Cd283       O290   2.441       .  S
Cd283       O289   2.451       .  S
Cd283       O288   2.449       .  S
Cd283       O284   2.491       .  S
Cd283       O287   2.471       .  S
Cd283       O285   2.448       .  S
C286        O290   1.265       .  A
C286        C520   1.480       .  S
O291        C294   1.268       .  A
O291       Cd296   2.468       .  S
C292        O301   1.265       .  A
C292        O297   1.267       .  A
C292        C473   1.486       .  S
O293        C827   1.270       .  A
O293       Cd824   2.498       .  S
C294        O302   1.265       .  A
C294        C483   1.479       .  S
C295        O828   1.268       .  A
C295        O826   1.263   1_655  A
C295        C440   1.479       .  S
Cd296       O821   2.498       .  S
Cd296       O831   2.428       .  S
Cd296       O302   2.449       .  S
Cd296       O829   2.463       .  S
Cd296       O825   2.471       .  S
Cd296       O300   2.483       .  S
Cd296       O298   2.454       .  S
O297       Cd824   2.471   1_455  S
O298        C823   1.263       .  A
C299        O821   1.270       .  A
C299        O831   1.264       .  A
C299        C453   1.478       .  S
O300        C823   1.268       .  A
O301       Cd824   2.463   1_455  S
O303        C827   1.264       .  A
O303       Cd824   2.428       .  S
O304        C307   1.265       .  A
O304       Cd837   2.487   1_455  S
C305        O314   1.263       .  A
C305        O310   1.264       .  A
C305        C503   1.486       .  S
O306        C312   1.268       .  A
O306       Cd309   2.462       .  S
C307        O315   1.262       .  A
C307        C510   1.488       .  S
C308        O313   1.264       .  A
C308        O311   1.261       .  A
C308        C430   1.475       .  S
Cd309       O832   2.487       .  S
Cd309       O316   2.449       .  S
Cd309       O843   2.450       .  S
Cd309       O314   2.445       .  S
Cd309       O310   2.488       .  S
Cd309       O313   2.489       .  S
Cd309       O311   2.441       .  S
C312        O316   1.268       .  A
C312        C450   1.477       .  S
O315       Cd837   2.450   1_455  S
O317        C320   1.267       .  A
O317       Cd322   2.484       .  S
C318        O327   1.265       .  A
C318        O323   1.268       .  A
C318        C403   1.486       .  S
O319        C325   1.269       .  A
O319       Cd322   2.489       .  S
C320        O328   1.264       .  A
C320        C410   1.479       .  S
C321        O326   1.267       .  A
C321        O324   1.264       .  A
C321        C463   1.478       .  S
Cd322       O329   2.435       .  S
Cd322       O328   2.460       .  S
Cd322       O327   2.458       .  S
Cd322       O323   2.482       .  S
Cd322       O326   2.471       .  S
Cd322       O324   2.463       .  S
C325        O329   1.264       .  A
C325        C420   1.480       .  S
O330        C333   1.267       .  A
O330       Cd335   2.472       .  S
C331        O340   1.265       .  A
C331        O336   1.267       .  A
C331        C393   1.472       .  S
O332        C338   1.270       .  A
O332       Cd335   2.483       .  S
C333        O341   1.263       .  A
C333        C380   1.487       .  S
C334        O339   1.267       .  A
C334        O337   1.262       .  A
C334        C493   1.472       .  S
Cd335       O342   2.412       .  S
Cd335       O341   2.461       .  S
Cd335       O340   2.447       .  S
Cd335       O336   2.476       .  S
Cd335       O339   2.480       .  S
Cd335       O337   2.434       .  S
C338        O342   1.265       .  A
C338        C423   1.476       .  S
O343        C346   1.268       .  A
O343       Cd876   2.482   1_455  S
C344        O353   1.264       .  A
C344        O349   1.268       .  A
C344        C390   1.475       .  S
O345        C351   1.270       .  A
O345       Cd348   2.478       .  S
C346        O354   1.262       .  A
C346        C383   1.487       .  S
C347        O352   1.267       .  A
C347        O350   1.263       .  A
C347        C433   1.476       .  S
Cd348       O871   2.482       .  S
Cd348       O355   2.425       .  S
Cd348       O882   2.433       .  S
Cd348       O353   2.443       .  S
Cd348       O349   2.479       .  S
Cd348       O352   2.471       .  S
Cd348       O350   2.457       .  S
C351        O355   1.266       .  A
C351        C370   1.478       .  S
O354       Cd876   2.433   1_455  S
O356        C359   1.268       .  A
O356       Cd361   2.478       .  S
C357        O366   1.265       .  A
C357        O362   1.266       .  A
C357        C400   1.489       .  S
O358        C364   1.269       .  A
O358       Cd361   2.495       .  S
C359        O367   1.265       .  A
C359        C413   1.478       .  S
C360        O893   1.269       .  A
C360        O891   1.265   1_455  A
C360        C443   1.483       .  S
Cd361       O896   2.433       .  S
Cd361       O367   2.442       .  S
Cd361       O894   2.461       .  S
Cd361       O890   2.471       .  S
Cd361       O365   2.483       .  S
Cd361       O363   2.457       .  S
O362       Cd889   2.471       .  S
O363        C888   1.265       .  A
C364        O896   1.263       .  A
C364        C373   1.480       .  S
O365        C888   1.269       .  A
O366       Cd889   2.461       .  S
O368        C892   1.263       .  A
O368       Cd889   2.433       .  S
C369        C370   1.410       .  A
C369        C374   1.411       .  A
C369       Br376   1.931       .  S
C370        C899   1.411       .  A
C371        C898   1.411       .  A
C371        C372   1.406       .  A
C371       Br378   1.934       .  S
C372        C901   1.412       .  A
C372       Br377   1.933       .  S
C373        C900   1.412       .  A
C373        C374   1.412       .  A
C374       Br375   1.930       .  S
C379        C380   1.413       .  A
C379        C384   1.408       .  A
C379       Br386   1.935       .  S
C380        C381   1.415       .  A
C381        C382   1.410       .  A
C381       Br388   1.932       .  S
C382        C383   1.414       .  A
C382       Br387   1.935       .  S
C383        C384   1.416       .  A
C384       Br385   1.935       .  S
C389        C390   1.410       .  A
C389        C394   1.408       .  A
C389       Br396   1.929       .  S
C390        C391   1.411       .  A
C391        C392   1.407       .  A
C391       Br398   1.932       .  S
C392        C393   1.408       .  A
C392       Br397   1.931       .  S
C393        C394   1.408       .  A
C394       Br395   1.928       .  S
C399        C400   1.415       .  A
C399        C404   1.410       .  A
C399       Br406   1.934       .  S
C400        C401   1.417       .  A
C401        C402   1.410       .  A
C401       Br408   1.936       .  S
C402        C403   1.412       .  A
C402       Br407   1.934       .  S
C403        C404   1.413       .  A
C404       Br405   1.932       .  S
C409        C410   1.411       .  A
C409        C414   1.407       .  A
C409       Br416   1.932       .  S
C410        C411   1.411       .  A
C411        C412   1.410       .  A
C411       Br418   1.928       .  S
C412        C413   1.410       .  A
C412       Br417   1.930       .  S
C413        C414   1.411       .  A
C414       Br415   1.933       .  S
C419        C420   1.413       .  A
C419        C424   1.410       .  A
C419       Br426   1.931       .  S
C420        C421   1.413       .  A
C421        C422   1.406       .  A
C421       Br428   1.933       .  S
C422        C423   1.410       .  A
C422       Br427   1.936       .  S
C423        C424   1.410       .  A
C424       Br425   1.931       .  S
C429        C958   1.410   1_455  A
C429        C434   1.405   1_566  A
C429       Br436   1.933       .  S
C430        C957   1.410       .  A
C430        C431   1.411       .  A
C431       Br438   1.932       .  S
C432        C433   1.412       .  A
C432       Br437   1.931       .  S
C433        C698   1.409       .  A
C434        C697   1.409   1_455  A
C434       Br435   1.930       .  S
C439        C440   1.411   1_455  A
C439        C444   1.409       .  A
C439       Br446   1.931       .  S
C440        C705   1.408       .  A
C441        C704   1.408       .  A
C441        C442   1.410       .  A
C441       Br448   1.931       .  S
C442        C971   1.414       .  A
C442       Br447   1.930       .  S
C443        C970   1.414   1_455  A
C444       Br445   1.931       .  S
C449        C978   1.411   1_455  A
C449        C454   1.410       .  A
C449       Br456   1.930       .  S
C450        C977   1.411       .  A
C450        C451   1.410       .  A
C451        C452   1.407       .  A
C451       Br458   1.932       .  S
C452        C453   1.411       .  A
C452       Br457   1.932       .  S
C453        C982   1.410       .  A
C454        C981   1.410   1_455  A
C454       Br455   1.929       .  S
C459        C460   1.411       .  A
C459        C464   1.409       .  A
C459       Br466   1.933       .  S
C460        C461   1.411       .  A
C461        C462   1.407       .  A
C461       Br468   1.932       .  S
C462        C463   1.410       .  A
C462       Br467   1.932       .  S
C463        C464   1.412       .  A
C464       Br465   1.930       .  S
C469        C470   1.413       .  A
C469        C474   1.410       .  A
C469       Br476   1.933       .  S
C470        C471   1.414       .  A
C471        C472   1.409       .  A
C471       Br478   1.934       .  S
C472        C473   1.413       .  A
C472       Br477   1.934       .  S
C473        C474   1.414       .  A
C474       Br475   1.932       .  S
C479        C480   1.415       .  A
C479        C484   1.407       .  A
C479       Br486   1.932       .  S
C480        C481   1.412       .  A
C481        C482   1.409       .  A
C481       Br488   1.931       .  S
C482        C483   1.411       .  A
C482       Br487   1.931       .  S
C483        C484   1.411       .  A
C484       Br485   1.935       .  S
C489        C490   1.409       .  A
C489        C494   1.407   1_565  A
C489       Br496   1.929       .  S
C490        C491   1.409   1_565  A
C491        C492   1.406       .  A
C491       Br498   1.931   1_545  S
C492        C493   1.408       .  A
C492       Br497   1.929       .  S
C493        C494   1.410       .  A
C494       Br495   1.930       .  S
C499        C500   1.414       .  A
C499        C504   1.408       .  A
C499       Br506   1.933       .  S
C500        C501   1.418       .  A
C501        C502   1.410       .  A
C501       Br508   1.935       .  S
C502        C503   1.413       .  A
C502       Br507   1.935       .  S
C503        C504   1.413       .  A
C504       Br505   1.935       .  S
C509        C510   1.416       .  A
C509        C514   1.409       .  A
C509       Br516   1.936       .  S
C510        C511   1.415       .  A
C511        C512   1.411       .  A
C511       Br518   1.935       .  S
C512        C513   1.417       .  A
C512       Br517   1.935       .  S
C513        C514   1.414       .  A
C514       Br515   1.935       .  S
C519        C520   1.411       .  A
C519        C524   1.404       .  A
C519       Br526   1.928       .  S
C520        C521   1.413       .  A
C521        C522   1.411       .  A
C521       Br528   1.932       .  S
C522        C523   1.410       .  A
C522       Br527   1.929       .  S
C523        C524   1.409       .  A
C524       Br525   1.936       .  S
O529        C532   1.267       .  A
O529       Cd534   2.476       .  S
C530        O539   1.262       .  A
C530        O535   1.268       .  A
C530        C764   1.489       .  S
O531        C537   1.270       .  A
O531       Cd534   2.480       .  S
C532        O540   1.264       .  A
C532        C777   1.489       .  S
C533        O538   1.267       .  A
C533        O536   1.262       .  A
C533        C754   1.472       .  S
Cd534       O541   2.409       .  S
Cd534       O540   2.452       .  S
Cd534       O539   2.438       .  S
Cd534       O535   2.488       .  S
Cd534       O538   2.483       .  S
Cd534       O536   2.439       .  S
C537        O541   1.266       .  A
C537        C787   1.475       .  S
O542        C545   1.267       .  A
O542       Cd547   2.484       .  S
C543        O552   1.263       .  A
C543        O548   1.266       .  A
C543        C734   1.486       .  S
O544        C550   1.268       .  A
O544       Cd547   2.474       .  S
C545        O553   1.262       .  A
C545        C744   1.483       .  S
C546        O551   1.266       .  A
C546        O549   1.264       .  A
C546        C724   1.477       .  S
Cd547       O554   2.441       .  S
Cd547       O553   2.451       .  S
Cd547       O552   2.449       .  S
Cd547       O548   2.491       .  S
Cd547       O551   2.471       .  S
Cd547       O549   2.448       .  S
C550        O554   1.265       .  A
C550        C784   1.480       .  S
O555        C558   1.268       .  A
O555       Cd560   2.468       .  S
C556        O565   1.265       .  A
C556        O561   1.267       .  A
C556        C737   1.486       .  S
C558        O566   1.265       .  A
C558        C747   1.479       .  S
C559        C704   1.479       .  S
Cd560       O566   2.449       .  S
Cd560       O564   2.483       .  S
Cd560       O562   2.454   1_655  S
C563        C717   1.478       .  S
O568        C571   1.265       .  A
C569        O578   1.263       .  A
C569        O574   1.264       .  A
C569        C767   1.486       .  S
O570        C576   1.268       .  A
O570       Cd573   2.462       .  S
C571        O579   1.262       .  A
C571        C774   1.488       .  S
C572        O577   1.264       .  A
C572        O575   1.261       .  A
C572        C694   1.475       .  S
Cd573       O580   2.449       .  S
Cd573       O578   2.445       .  S
Cd573       O574   2.488       .  S
Cd573       O577   2.489       .  S
Cd573       O575   2.441       .  S
C576        O580   1.268       .  A
C576        C714   1.477       .  S
O581        C584   1.267       .  A
O581       Cd586   2.484       .  S
C582        O591   1.265       .  A
C582        O587   1.268       .  A
C582        C667   1.486       .  S
O583        C589   1.269       .  A
O583       Cd586   2.489       .  S
C584        O592   1.264       .  A
C584        C674   1.479       .  S
C585        O590   1.267       .  A
C585        O588   1.264       .  A
C585        C727   1.478       .  S
Cd586       O593   2.435       .  S
Cd586       O592   2.460       .  S
Cd586       O591   2.458       .  S
Cd586       O587   2.482       .  S
Cd586       O590   2.471       .  S
Cd586       O588   2.463       .  S
C589        O593   1.264       .  A
C589        C684   1.480       .  S
O594        C597   1.267       .  A
O594       Cd599   2.472       .  S
C595        O604   1.265       .  A
C595        O600   1.267       .  A
C595        C657   1.472       .  S
O596        C602   1.270       .  A
O596       Cd599   2.483       .  S
C597        O605   1.263       .  A
C597        C644   1.487       .  S
C598        O603   1.267       .  A
C598        O601   1.262       .  A
C598        C757   1.472       .  S
Cd599       O606   2.412       .  S
Cd599       O605   2.461       .  S
Cd599       O604   2.447       .  S
Cd599       O600   2.476       .  S
Cd599       O603   2.480       .  S
Cd599       O601   2.434       .  S
C602        O606   1.265       .  A
C602        C687   1.476       .  S
O607        C610   1.268       .  A
C608        O617   1.264       .  A
C608        O613   1.268       .  A
C608        C654   1.475       .  S
O609        C615   1.270   1_655  A
O609       Cd612   2.478       .  S
C610        O618   1.262       .  A
C610        C647   1.487       .  S
C611        O616   1.267       .  A
C611        O614   1.263       .  A
C611        C697   1.476       .  S
Cd612       O619   2.425   1_655  S
Cd612       O617   2.443       .  S
Cd612       O613   2.479       .  S
Cd612       O616   2.471       .  S
Cd612       O614   2.457       .  S
C615        O619   1.266       .  A
C615        C634   1.478       .  S
O620        C623   1.268       .  A
O620       Cd625   2.478   1_655  S
C621        O630   1.265       .  A
C621        O626   1.266       .  A
C621        C664   1.489       .  S
O622        C628   1.269       .  A
O622       Cd625   2.495       .  S
C623        O631   1.265       .  A
C623        C677   1.478       .  S
C624        C707   1.483       .  S
Cd625       O631   2.442   1_455  S
Cd625       O629   2.483       .  S
Cd625       O627   2.457   1_455  S
C628        C637   1.480       .  S
C633        C634   1.410   1_655  A
C633        C638   1.411       .  A
C633       Br640   1.931       .  S
C635        C636   1.406       .  A
C635       Br642   1.934       .  S
C636       Br641   1.933       .  S
C637        C638   1.412   1_455  A
C638       Br639   1.930       .  S
C643        C644   1.413       .  A
C643        C648   1.408       .  A
C643       Br650   1.935       .  S
C644        C645   1.415       .  A
C645        C646   1.410       .  A
C645       Br652   1.932       .  S
C646        C647   1.414       .  A
C646       Br651   1.935       .  S
C647        C648   1.416       .  A
C648       Br649   1.936       .  S
C653        C654   1.410       .  A
C653        C658   1.408       .  A
C653       Br660   1.929       .  S
C654        C655   1.411       .  A
C655        C656   1.407       .  A
C655       Br662   1.932       .  S
C656        C657   1.408       .  A
C656       Br661   1.931       .  S
C657        C658   1.408       .  A
C658       Br659   1.928       .  S
C663        C664   1.415       .  A
C663        C668   1.410       .  A
C663       Br670   1.934       .  S
C664        C665   1.417       .  A
C665        C666   1.410       .  A
C665       Br672   1.936       .  S
C666        C667   1.412       .  A
C666       Br671   1.934       .  S
C667        C668   1.413       .  A
C668       Br669   1.932       .  S
C673        C674   1.411       .  A
C673        C678   1.407       .  A
C673       Br680   1.932       .  S
C674        C675   1.411       .  A
C675        C676   1.410       .  A
C675       Br682   1.928       .  S
C676        C677   1.410       .  A
C676       Br681   1.930       .  S
C677        C678   1.411       .  A
C678       Br679   1.933       .  S
C683        C684   1.413       .  A
C683        C688   1.410       .  A
C683       Br690   1.931       .  S
C684        C685   1.413       .  A
C685        C686   1.406       .  A
C685       Br692   1.933       .  S
C686        C687   1.410       .  A
C686       Br691   1.936       .  S
C687        C688   1.410       .  A
C688       Br689   1.931       .  S
C693        C698   1.405   1_565  A
C693       Br700   1.933       .  S
C694        C695   1.411       .  A
C695        C960   1.410   1_565  A
C695       Br702   1.932       .  S
C696        C959   1.410   1_544  A
C696        C697   1.412       .  A
C696       Br701   1.931       .  S
C698       Br699   1.930       .  S
C703        C704   1.411       .  A
C703        C708   1.409       .  A
C703       Br710   1.931       .  S
C705        C706   1.410   1_556  A
C705       Br712   1.931       .  S
C706       Br711   1.930       .  S
C707        C972   1.412   1_554  A
C708        C971   1.412       .  A
C708       Br709   1.931       .  S
C713        C718   1.410       .  A
C713       Br720   1.930       .  S
C714        C715   1.410       .  A
C715        C716   1.407       .  A
C715       Br722   1.932       .  S
C716        C717   1.411       .  A
C716       Br721   1.932       .  S
C718       Br719   1.929       .  S
C723        C724   1.411       .  A
C723        C728   1.409       .  A
C723       Br730   1.933       .  S
C724        C725   1.411       .  A
C725        C726   1.407       .  A
C725       Br732   1.932       .  S
C726        C727   1.410       .  A
C726       Br731   1.931       .  S
C727        C728   1.412       .  A
C728       Br729   1.930       .  S
C733        C734   1.413       .  A
C733        C738   1.410       .  A
C733       Br740   1.933       .  S
C734        C735   1.414       .  A
C735        C736   1.409       .  A
C735       Br742   1.934       .  S
C736        C737   1.413       .  A
C736       Br741   1.934       .  S
C737        C738   1.414       .  A
C738       Br739   1.932       .  S
C743        C744   1.415       .  A
C743        C748   1.407       .  A
C743       Br750   1.932       .  S
C744        C745   1.412       .  A
C745        C746   1.409       .  A
C745       Br752   1.931       .  S
C746        C747   1.411       .  A
C746       Br751   1.931       .  S
C747        C748   1.411       .  A
C748       Br749   1.935       .  S
C753        C754   1.409       .  A
C753        C758   1.407   1_565  A
C753       Br760   1.929       .  S
C754        C755   1.409   1_565  A
C755        C756   1.406       .  A
C755       Br762   1.931   1_545  S
C756        C757   1.408       .  A
C756       Br761   1.929       .  S
C757        C758   1.410       .  A
C758       Br759   1.930       .  S
C763        C764   1.414       .  A
C763        C768   1.408       .  A
C763       Br770   1.933       .  S
C764        C765   1.418       .  A
C765        C766   1.410       .  A
C765       Br772   1.935       .  S
C766        C767   1.413       .  A
C766       Br771   1.935       .  S
C767        C768   1.413       .  A
C768       Br769   1.935       .  S
C773        C774   1.416       .  A
C773        C778   1.409       .  A
C773       Br780   1.936       .  S
C774        C775   1.415       .  A
C775        C776   1.411       .  A
C775       Br782   1.935       .  S
C776        C777   1.417       .  A
C776       Br781   1.935       .  S
C777        C778   1.414       .  A
C778       Br779   1.935       .  S
C783        C784   1.411       .  A
C783        C788   1.404       .  A
C783       Br790   1.928       .  S
C784        C785   1.413       .  A
C785        C786   1.411       .  A
C785       Br792   1.932       .  S
C786        C787   1.410       .  A
C786       Br791   1.929       .  S
C787        C788   1.409       .  A
C788       Br789   1.936       .  S
O793        C796   1.267       .  A
O793       Cd798   2.476       .  S
C794        O803   1.262       .  A
C794        O799   1.268       .  A
C794       C1028   1.489       .  S
O795        C801   1.270       .  A
O795       Cd798   2.480       .  S
C796        O804   1.264       .  A
C796       C1041   1.489       .  S
C797        O802   1.267       .  A
C797        O800   1.262       .  A
C797       C1018   1.472       .  S
Cd798       O805   2.409       .  S
Cd798       O804   2.452       .  S
Cd798       O803   2.437       .  S
Cd798       O799   2.488       .  S
Cd798       O802   2.483       .  S
Cd798       O800   2.439       .  S
C801        O805   1.266       .  A
C801       C1051   1.475       .  S
O806        C809   1.267       .  A
O806       Cd811   2.484       .  S
C807        O816   1.263       .  A
C807        O812   1.266       .  A
C807        C998   1.486       .  S
O808        C814   1.268       .  A
O808       Cd811   2.474       .  S
C809        O817   1.262       .  A
C809       C1008   1.483       .  S
C810        O815   1.266       .  A
C810        O813   1.264       .  A
C810        C988   1.477       .  S
Cd811       O818   2.441       .  S
Cd811       O817   2.451       .  S
Cd811       O816   2.449       .  S
Cd811       O812   2.491       .  S
Cd811       O815   2.471       .  S
Cd811       O813   2.448       .  S
C814        O818   1.265       .  A
C814       C1048   1.480       .  S
O819        C822   1.268       .  A
O819       Cd824   2.468       .  S
C820        O829   1.265       .  A
C820        O825   1.267       .  A
C820       C1001   1.486       .  S
C822        O830   1.265       .  A
C822       C1011   1.479       .  S
C823        C968   1.479       .  S
Cd824       O830   2.449       .  S
Cd824       O828   2.483       .  S
Cd824       O826   2.454   1_655  S
C827        C981   1.478       .  S
O832        C835   1.265       .  A
C833        O842   1.263       .  A
C833        O838   1.264       .  A
C833       C1031   1.486       .  S
O834        C840   1.268       .  A
O834       Cd837   2.462       .  S
C835        O843   1.262       .  A
C835       C1038   1.488       .  S
C836        O841   1.264       .  A
C836        O839   1.261       .  A
C836        C958   1.475       .  S
Cd837       O844   2.449       .  S
Cd837       O842   2.445       .  S
Cd837       O838   2.488       .  S
Cd837       O841   2.489       .  S
Cd837       O839   2.441       .  S
C840        O844   1.268       .  A
C840        C978   1.477       .  S
O845        C848   1.267       .  A
O845       Cd850   2.484       .  S
C846        O855   1.265       .  A
C846        O851   1.268       .  A
C846        C931   1.486       .  S
O847        C853   1.269       .  A
O847       Cd850   2.489       .  S
C848        O856   1.264       .  A
C848        C938   1.479       .  S
C849        O854   1.267       .  A
C849        O852   1.264       .  A
C849        C991   1.478       .  S
Cd850       O857   2.435       .  S
Cd850       O856   2.460       .  S
Cd850       O855   2.458       .  S
Cd850       O851   2.482       .  S
Cd850       O854   2.471       .  S
Cd850       O852   2.463       .  S
C853        O857   1.264       .  A
C853        C948   1.480       .  S
O858        C861   1.267       .  A
O858       Cd863   2.472       .  S
C859        O868   1.265       .  A
C859        O864   1.267       .  A
C859        C921   1.472       .  S
O860        C866   1.270       .  A
O860       Cd863   2.483       .  S
C861        O869   1.263       .  A
C861        C908   1.487       .  S
C862        O867   1.267       .  A
C862        O865   1.262       .  A
C862       C1021   1.472       .  S
Cd863       O870   2.412       .  S
Cd863       O869   2.461       .  S
Cd863       O868   2.447       .  S
Cd863       O864   2.476       .  S
Cd863       O867   2.480       .  S
Cd863       O865   2.434       .  S
C866        O870   1.265       .  A
C866        C951   1.476       .  S
O871        C874   1.268       .  A
C872        O881   1.264       .  A
C872        O877   1.268       .  A
C872        C918   1.475       .  S
O873        C879   1.270   1_655  A
O873       Cd876   2.478       .  S
C874        O882   1.262       .  A
C874        C911   1.487       .  S
C875        O880   1.267       .  A
C875        O878   1.263       .  A
C875        C961   1.476       .  S
Cd876       O883   2.425   1_655  S
Cd876       O881   2.443       .  S
Cd876       O877   2.479       .  S
Cd876       O880   2.471       .  S
Cd876       O878   2.457       .  S
C879        O883   1.266       .  A
C879        C898   1.478       .  S
O884        C887   1.268       .  A
O884       Cd889   2.478   1_655  S
C885        O894   1.265       .  A
C885        O890   1.266       .  A
C885        C928   1.489       .  S
O886        C892   1.269       .  A
O886       Cd889   2.495       .  S
C887        O895   1.265       .  A
C887        C941   1.478       .  S
C888        C971   1.483       .  S
Cd889       O895   2.442   1_455  S
Cd889       O893   2.483       .  S
Cd889       O891   2.457   1_455  S
C892        C901   1.480       .  S
C897        C898   1.410   1_655  A
C897        C902   1.411       .  A
C897       Br904   1.931       .  S
C899        C900   1.406       .  A
C899       Br906   1.934       .  S
C900       Br905   1.933       .  S
C901        C902   1.412   1_455  A
C902       Br903   1.930       .  S
C907        C908   1.413       .  A
C907        C912   1.408       .  A
C907       Br914   1.935       .  S
C908        C909   1.415       .  A
C909        C910   1.410       .  A
C909       Br916   1.932       .  S
C910        C911   1.414       .  A
C910       Br915   1.935       .  S
C911        C912   1.416       .  A
C912       Br913   1.936       .  S
C917        C918   1.410       .  A
C917        C922   1.408       .  A
C917       Br924   1.929       .  S
C918        C919   1.411       .  A
C919        C920   1.407       .  A
C919       Br926   1.932       .  S
C920        C921   1.408       .  A
C920       Br925   1.931       .  S
C921        C922   1.408       .  A
C922       Br923   1.928       .  S
C927        C928   1.415       .  A
C927        C932   1.410       .  A
C927       Br934   1.934       .  S
C928        C929   1.417       .  A
C929        C930   1.410       .  A
C929       Br936   1.936       .  S
C930        C931   1.412       .  A
C930       Br935   1.934       .  S
C931        C932   1.413       .  A
C932       Br933   1.932       .  S
C937        C938   1.411       .  A
C937        C942   1.407       .  A
C937       Br944   1.932       .  S
C938        C939   1.411       .  A
C939        C940   1.410       .  A
C939       Br946   1.928       .  S
C940        C941   1.410       .  A
C940       Br945   1.930       .  S
C941        C942   1.411       .  A
C942       Br943   1.933       .  S
C947        C948   1.413       .  A
C947        C952   1.410       .  A
C947       Br954   1.931       .  S
C948        C949   1.413       .  A
C949        C950   1.406       .  A
C949       Br956   1.933       .  S
C950        C951   1.410       .  A
C950       Br955   1.936       .  S
C951        C952   1.410       .  A
C952       Br953   1.931       .  S
C957        C962   1.405   1_566  A
C957       Br964   1.933       .  S
C958        C959   1.411       .  A
C959       Br966   1.932       .  S
C960        C961   1.412       .  A
C960       Br965   1.931       .  S
C962       Br963   1.930       .  S
C967        C968   1.411       .  A
C967        C972   1.409       .  A
C967       Br974   1.931       .  S
C969        C970   1.410       .  A
C969       Br976   1.931       .  S
C970       Br975   1.930       .  S
C972       Br973   1.931       .  S
C977        C982   1.410       .  A
C977       Br984   1.930       .  S
C978        C979   1.410       .  A
C979        C980   1.407       .  A
C979       Br986   1.932       .  S
C980        C981   1.411       .  A
C980       Br985   1.932       .  S
C982       Br983   1.929       .  S
C987        C988   1.411       .  A
C987        C992   1.409       .  A
C987       Br994   1.933       .  S
C988        C989   1.411       .  A
C989        C990   1.407       .  A
C989       Br996   1.932       .  S
C990        C991   1.410       .  A
C990       Br995   1.932       .  S
C991        C992   1.412       .  A
C992       Br993   1.930       .  S
C997        C998   1.413       .  A
C997       C1002   1.410       .  A
C997      Br1004   1.933       .  S
C998        C999   1.414       .  A
C999       C1000   1.409       .  A
C999      Br1006   1.934       .  S
C1000      C1001   1.413       .  A
C1000     Br1005   1.934       .  S
C1001      C1002   1.414       .  A
C1002     Br1003   1.932       .  S
C1007      C1008   1.415       .  A
C1007      C1012   1.407       .  A
C1007     Br1014   1.932       .  S
C1008      C1009   1.412       .  A
C1009      C1010   1.409       .  A
C1009     Br1016   1.931       .  S
C1010      C1011   1.411       .  A
C1010     Br1015   1.931       .  S
C1011      C1012   1.411       .  A
C1012     Br1013   1.935       .  S
C1017      C1018   1.409       .  A
C1017      C1022   1.407   1_565  A
C1017     Br1024   1.929       .  S
C1018      C1019   1.409   1_565  A
C1019      C1020   1.406       .  A
C1019     Br1026   1.931   1_545  S
C1020      C1021   1.408       .  A
C1020     Br1025   1.929       .  S
C1021      C1022   1.410       .  A
C1022     Br1023   1.930       .  S
C1027      C1028   1.414       .  A
C1027      C1032   1.408       .  A
C1027     Br1034   1.933       .  S
C1028      C1029   1.418       .  A
C1029      C1030   1.410       .  A
C1029     Br1036   1.935       .  S
C1030      C1031   1.413       .  A
C1030     Br1035   1.935       .  S
C1031      C1032   1.413       .  A
C1032     Br1033   1.935       .  S
C1037      C1038   1.416       .  A
C1037      C1042   1.409       .  A
C1037     Br1044   1.936       .  S
C1038      C1039   1.415       .  A
C1039      C1040   1.411       .  A
C1039     Br1046   1.935       .  S
C1040      C1041   1.417       .  A
C1040     Br1045   1.935       .  S
C1041      C1042   1.414       .  A
C1042     Br1043   1.935       .  S
C1047      C1048   1.411       .  A
C1047      C1052   1.404       .  A
C1047     Br1054   1.928       .  S
C1048      C1049   1.413       .  A
C1049      C1050   1.411       .  A
C1049     Br1056   1.932       .  S
C1050      C1051   1.410       .  A
C1050     Br1055   1.929       .  S
C1051      C1052   1.409       .  A
C1052     Br1053   1.936       .  S
