geometry optimzed in LAMMPS
_audit_creation_date              2020-11-30 
_audit_creation_method            'lammps2cif' 
_symmetry_space_group_name_H-M    'P1' 
_symmetry_Int_Tables_number       1 
_symmetry_cell_setting            triclinic 
loop_ 
_symmetry_equiv_pos_as_xyz 
  x,y,z 
_cell_length_a                    43.73873784 
_cell_length_b                    43.64685638783756 
_cell_length_c                    24.474801602412555 
_cell_angle_alpha                 90.01116854620314 
_cell_angle_beta                  90.04612534247698 
_cell_angle_gamma                 119.85112782851799 
loop_ 
_atom_site_label 
_atom_site_type_symbol 
_atom_site_fract_x 
_atom_site_fract_y 
_atom_site_fract_z 
_atom_site_charge 
O1          O  0.67746866  0.87958352  0.21469503    -0.85800
O2          O  0.67911957  0.86412772  0.32327364    -0.82800
C3          C  0.65713794  0.87085880  0.34609297     0.97700
O4          O  0.62466486  0.85176465  0.33650033    -0.82900
O5          O  0.56350084  0.80629613  0.28264871    -0.85500
C6          C  0.56145691  0.82332358  0.24222732     1.02200
O7          O  0.58241693  0.83102828  0.20253424    -0.78300
O8          O  0.64362454  0.84741245  0.14741699    -0.78500
C9          C  0.66605909  0.87723524  0.16667721     1.02100
O10         O  0.68260628  0.81868547  0.18311553    -0.85800
O11         O  0.67706527  0.79979821  0.29136303    -0.82900
C12         C  0.66386371  0.78981929  0.33821753     0.97700
O13         O  0.63962591  0.79546384  0.35453824    -0.82900
O14         O  0.58141216  0.75145474  0.29282808    -0.85500
C15         C  0.56176927  0.73887653  0.25153504     1.02200
O16         O  0.56518233  0.75862402  0.21136126    -0.78300
O17         O  0.62915454  0.77604332  0.16514576    -0.78500
C18         C  0.66204000  0.78974977  0.15954595     1.02100
Cr19       Cr  0.67544818  0.83873740  0.25285528     1.93700
Cr20       Cr  0.60421554  0.80223434  0.31182500     1.93200
Cr21       Cr  0.60686383  0.80413125  0.18651439     1.39100
O22         O  0.62878915  0.81505064  0.25043111    -1.23500
O23         O  0.14989252  0.81810095  0.18130402    -0.85800
O24         O  0.13594863  0.80070173  0.29008896    -0.82800
C25         C  0.13885905  0.79098818  0.33738753     0.97700
O26         O  0.16877311  0.79773381  0.35520676    -0.82900
O27         O  0.18310824  0.75251104  0.29676534    -0.85500
C28         C  0.19022721  0.73931350  0.25625494     1.02200
O29         O  0.20718389  0.75860333  0.21613302    -0.78300
O30         O  0.16128028  0.77535571  0.16603032    -0.78500
C31         C  0.14238729  0.78925881  0.15809393     1.02100
O32         O  0.21484594  0.87952760  0.21169286    -0.85800
O33         O  0.19776721  0.86576174  0.32063114    -0.82900
C34         C  0.22674116  0.87329565  0.34326606     0.97700
O35         O  0.23992557  0.85363644  0.33629307    -0.82900
O36         O  0.25571105  0.80657553  0.28651680    -0.85500
C37         C  0.27500687  0.82317075  0.24617507     1.02200
O38         O  0.26210930  0.83098541  0.20604979    -0.78300
O39         O  0.21773633  0.84619977  0.14722885    -0.78500
C40         C  0.22418272  0.87622218  0.16432614     1.02100
Cr41       Cr  0.17638110  0.83918468  0.25103582     1.93700
Cr42       Cr  0.21100723  0.80359498  0.31389354     1.93200
Cr43       Cr  0.21116834  0.80371021  0.18869316     1.39100
O44         O  0.19955582  0.81552085  0.25119882    -1.23500
O45         O  0.13602790  0.33582928  0.28566053    -0.85800
O46         O  0.15378288  0.33457676  0.17808248    -0.82800
C47         C  0.14647171  0.35585642  0.15403535     0.97700
O48         O  0.16504236  0.38863621  0.16240694    -0.82900
O49         O  0.20935145  0.45127508  0.21509905    -0.85500
C50         C  0.19124039  0.45334799  0.25374631     1.02200
O51         O  0.18236505  0.43226619  0.29344275    -0.78300
O52         O  0.16582547  0.37242282  0.35204122    -0.78500
C53         C  0.13697076  0.34827695  0.33254765     1.02100
O54         O  0.19756322  0.33373265  0.32120601    -0.85800
O55         O  0.21860700  0.33893261  0.21423499    -0.82900
C56         C  0.22931781  0.35191248  0.16744261     0.97700
O57         O  0.22246610  0.37491205  0.14889444    -0.82900
O58         O  0.26443809  0.43372106  0.21062180    -0.85500
C59         C  0.27612085  0.45360920  0.25184598     1.02200
O60         O  0.25549396  0.45077034  0.29035630    -0.78300
O61         O  0.23771652  0.38803494  0.34138096    -0.78500
C62         C  0.22495750  0.35522253  0.34730637     1.02100
Cr63       Cr  0.17825827  0.33944607  0.24987706     1.93700
Cr64       Cr  0.21420522  0.41023721  0.18913676     1.93200
Cr65       Cr  0.20963113  0.40905797  0.31431907     1.39100
O66         O  0.20066110  0.38624055  0.25121302    -1.23500
O67         O  0.88428106  0.67317185  0.78797485    -0.85800
O68         O  0.86980398  0.67601295  0.67971750    -0.82800
C69         C  0.87682660  0.65430115  0.65656062     0.97700
O70         O  0.85733835  0.62157329  0.66406919    -0.82900
O71         O  0.81072897  0.55946424  0.71497747    -0.85500
C72         C  0.82765506  0.55676619  0.75486955     1.02200
O73         O  0.83558587  0.57733335  0.79519964    -0.78300
O74         O  0.85196589  0.63745670  0.85340954    -0.78500
C75         C  0.88170440  0.66064216  0.83521048     1.02100
O76         O  0.82328872  0.67763859  0.81915324    -0.85800
O77         O  0.80539141  0.67381422  0.71062374    -0.82900
C78         C  0.79587908  0.66129214  0.66324822     0.97700
O79         O  0.80183979  0.63741086  0.64608007    -0.82900
O80         O  0.75712234  0.57864967  0.70570778    -0.85500
C81         C  0.74410730  0.55840391  0.74622257     1.02200
O82         O  0.76339175  0.56076024  0.78647229    -0.78300
O83         O  0.78101722  0.62380004  0.83628752    -0.78500
C84         C  0.79453396  0.65668975  0.84256560     1.02100
Cr85       Cr  0.84383491  0.67151605  0.74946282     1.93700
Cr86       Cr  0.80774273  0.60112872  0.68761512     1.93200
Cr87       Cr  0.80888168  0.60167351  0.81299925     1.39100
O88         O  0.82016782  0.62475159  0.75006363    -1.23500
O89         O  0.86824026  0.19070629  0.67901696    -0.85800
O90         O  0.88505362  0.20992611  0.78690692    -0.82800
C91         C  0.88346953  0.22096775  0.83389203     0.97700
O92         O  0.85421970  0.21547131  0.85278432    -0.82900
O93         O  0.83832229  0.25920904  0.79373510    -0.85500
C94         C  0.82998468  0.27155984  0.75351963     1.02200
O95         O  0.81234533  0.25161419  0.71434818    -0.78300
O96         O  0.85690759  0.23339922  0.66278990    -0.78500
C97         C  0.87559061  0.21924358  0.65487887     1.02100
O98         O  0.80327692  0.13025998  0.71408179    -0.85800
O99         O  0.82352742  0.14601455  0.82143762    -0.82900
C100        C  0.79567555  0.13976167  0.84644623     0.97700
O101        O  0.78260245  0.15948889  0.83955675    -0.82900
O102        O  0.76556271  0.20494064  0.78871834    -0.85500
C103        C  0.74521097  0.18741688  0.74985020     1.02200
O104        O  0.75708583  0.17932858  0.70872220    -0.78300
O105        O  0.79959919  0.16232094  0.64838033    -0.78500
C106        C  0.79257621  0.13249449  0.66719400     1.02100
Cr107      Cr  0.84328148  0.17110099  0.75036310     1.93700
Cr108      Cr  0.81095400  0.20870981  0.81374197     1.93200
Cr109      Cr  0.80755468  0.20585502  0.68842692     1.39100
O110        O  0.82060798  0.19525498  0.75088645    -1.23500
O111        O  0.33968033  0.14645728  0.68320108    -0.85800
O112        O  0.34499015  0.13282201  0.79143490    -0.82800
C113        C  0.35808020  0.13601046  0.83842745     0.97700
O114        O  0.38188662  0.16594303  0.85514711    -0.82900
O115        O  0.44019019  0.18090022  0.79340375    -0.85500
C116        C  0.46002999  0.18849580  0.75230558     1.02200
O117        O  0.45678622  0.20531103  0.71265142    -0.78300
O118        O  0.39362810  0.15890455  0.66457100    -0.78500
C119        C  0.36083296  0.13912217  0.65898666     1.02100
O120        O  0.34300297  0.21163209  0.71513383    -0.85800
O121        O  0.34172742  0.19442960  0.82357206    -0.82900
C122        C  0.36327478  0.22331116  0.84635796     0.97700
O123        O  0.39588750  0.23695753  0.83763397    -0.82900
O124        O  0.45760361  0.25334338  0.78467185    -0.85500
C125        C  0.45942582  0.27270767  0.74487923     1.02200
O126        O  0.43832049  0.25977617  0.70527674    -0.78300
O127        O  0.37793449  0.21497853  0.64848629    -0.78500
C128        C  0.35472533  0.22135004  0.66744754     1.02100
Cr129      Cr  0.34597258  0.17318222  0.75311930     1.93700
Cr130      Cr  0.41698244  0.20838555  0.81292339     1.93200
Cr131      Cr  0.41488366  0.20878769  0.68766226     1.39100
O132        O  0.39262625  0.19679484  0.75122368    -1.23500
C133        C  0.70769524  0.17797837  0.75200330    -0.03800
C134        C  0.68610556  0.16523951  0.70535594    -0.09600
C135        C  0.65152616  0.15914698  0.70662415    -0.17200
C136        C  0.63804920  0.16542525  0.75456108     0.24900
C137        C  0.65896902  0.17700812  0.80160712    -0.18900
C138        C  0.69354509  0.18325740  0.80038627    -0.07800
C139        C  0.60378529  0.16249426  0.75451832    -0.14200
C140        C  0.57645001  0.16295097  0.75392997    -0.14000
C141        C  0.54564103  0.16680802  0.75224023     0.24800
C142        C  0.52291140  0.15706661  0.79717275    -0.19400
C143        C  0.49443936  0.16325548  0.79676130    -0.07900
C144        C  0.48847523  0.17943315  0.75141328    -0.03900
C145        C  0.51105964  0.18841124  0.70600325    -0.09200
C146        C  0.53943932  0.18216645  0.70650349    -0.16900
H147        H  0.69623907  0.16096374  0.66749867     0.11300
H148        H  0.63560260  0.15035261  0.66988109     0.10500
H149        H  0.64884960  0.18204365  0.83888813     0.10500
H150        H  0.70940455  0.19284687  0.83708248     0.11000
H151        H  0.52756391  0.14529726  0.83289785     0.11100
H152        H  0.47756654  0.15605434  0.83235783     0.11000
H153        H  0.50722092  0.20087928  0.67044439     0.11200
H154        H  0.55694913  0.18994010  0.67159112     0.10000
C155        C  0.48771641  0.31018911  0.74404379    -0.03800
C156        C  0.50986410  0.32491662  0.78973774    -0.09600
C157        C  0.53814760  0.35945692  0.78810433    -0.17200
C158        C  0.54476311  0.37983409  0.74088802     0.24900
C159        C  0.52251900  0.36574043  0.69550263    -0.18900
C160        C  0.49406124  0.33112610  0.69708252    -0.07800
C161        C  0.57549792  0.41443193  0.73859661    -0.14200
C162        C  0.60286066  0.44211667  0.73910053    -0.14000
C163        C  0.63711724  0.47325812  0.74195429     0.24800
C164        C  0.65195051  0.49430788  0.69563658    -0.19400
C165        C  0.68644099  0.52281143  0.69744392    -0.07900
C166        C  0.70658921  0.53040347  0.74557014    -0.03900
C167        C  0.69108956  0.50963314  0.79230253    -0.09200
C168        C  0.65658660  0.48127395  0.79044997    -0.16900
H169        H  0.50570238  0.30956249  0.82654289     0.11300
H170        H  0.55526707  0.37005785  0.82338823     0.10500
H171        H  0.52752350  0.38125282  0.65863182     0.10500
H172        H  0.47755984  0.32051527  0.66120226     0.11000
H173        H  0.63716175  0.48822521  0.65781482     0.11100
H174        H  0.69765031  0.53824545  0.66075299     0.11000
H175        H  0.70584608  0.51485756  0.83001138     0.11200
H176        H  0.64538073  0.46508927  0.82650729     0.10000
C177        C  0.83903491  0.30905299  0.75317069    -0.03800
C178        C  0.83147420  0.32331609  0.70697370    -0.09600
C179        C  0.83722811  0.35777899  0.70792157    -0.17200
C180        C  0.85061392  0.37848189  0.75495231     0.24900
C181        C  0.85906487  0.36489386  0.80068902    -0.18900
C182        C  0.85342391  0.33040057  0.79979685    -0.07800
C183        C  0.85352089  0.41276056  0.75706242    -0.14200
C184        C  0.85306109  0.44013517  0.75740885    -0.14000
C185        C  0.84915909  0.47095097  0.75592817     0.24800
C186        C  0.85742532  0.49287226  0.80178162    -0.19400
C187        C  0.85125684  0.52141486  0.80121263    -0.07900
C188        C  0.83655509  0.52818559  0.75477858    -0.03900
C189        C  0.82898721  0.50634920  0.70858301    -0.09200
C190        C  0.83523924  0.47795381  0.70922291    -0.16900
H191        H  0.82044833  0.30761842  0.67041465     0.11300
H192        H  0.83049228  0.36800676  0.67235859     0.10500
H193        H  0.86928623  0.38066587  0.83739973     0.10500
H194        H  0.85942759  0.32015612  0.83604744     0.11000
H195        H  0.86805356  0.48755063  0.83825224     0.11100
H196        H  0.85729751  0.53769054  0.83742876     0.11000
H197        H  0.81771605  0.51085509  0.67214855     0.11200
H198        H  0.82862012  0.46107121  0.67358806     0.10000
C199        C  0.91560414  0.23948799  0.86816202    -0.03800
C200        C  0.94752476  0.24186057  0.85164825    -0.09600
C201        C  0.97744592  0.25849678  0.88507860    -0.17200
C202        C  0.97592795  0.27312058  0.93526066     0.24900
C203        C  0.94440320  0.27124357  0.95168301    -0.18900
C204        C  0.91445984  0.25454899  0.91846558    -0.07800
C205        C  0.00636251  0.28925150  0.97060446    -0.14200
C206        C  0.03125334  0.30185657  0.00140987    -0.14000
C207        C  0.06036353  0.31565066  0.03936981     0.24800
C208        C  0.08008177  0.35197799  0.04984041    -0.19400
C209        C  0.10807512  0.36515233  0.08719324    -0.07900
C210        C  0.11670078  0.34211065  0.11465157    -0.03900
C211        C  0.09671371  0.30564952  0.10374492    -0.09200
C212        C  0.06879267  0.29257091  0.06641083    -0.16900
H213        H  0.94927164  0.23050656  0.81324312     0.11300
H214        H  0.00167667  0.25970282  0.87197995     0.10500
H215        H  0.94287195  0.28243076  0.99041355     0.10500
H216        H  0.89036397  0.25331369  0.93233145     0.11000
H217        H  0.07379502  0.37011579  0.02921317     0.11100
H218        H  0.12292974  0.39334210  0.09457468     0.11000
H219        H  0.10264613  0.28717075  0.12403110     0.11200
H220        H  0.05372758  0.26440904  0.05870708     0.10000
C221        C  0.10447627  0.33390437  0.36600456    -0.03800
C222        C  0.10356369  0.35199784  0.41301329    -0.09600
C223        C  0.07342130  0.33801444  0.44579250    -0.17200
C224        C  0.04379576  0.30567603  0.43234036     0.24900
C225        C  0.04428949  0.28759030  0.38534602    -0.18900
C226        C  0.07437553  0.30166718  0.35222765    -0.07800
C227        C  0.01343327  0.29076751  0.46779213    -0.14200
C228        C  0.98899170  0.27861597  0.49938166    -0.14000
C229        C  0.96064655  0.26398299  0.53863815     0.24800
C230        C  0.94120440  0.28087349  0.54950180    -0.19400
C231        C  0.91374832  0.26658766  0.58770894    -0.07900
C232        C  0.90536608  0.23515791  0.61561488    -0.03900
C233        C  0.92530486  0.21859068  0.60474135    -0.09200
C234        C  0.95269539  0.23290293  0.56653970    -0.16900
H235        H  0.12620970  0.37695052  0.42457822     0.11300
H236        H  0.07336981  0.35227095  0.48200490     0.10500
H237        H  0.02156862  0.26247065  0.37458529     0.10500
H238        H  0.07430566  0.28703795  0.31644105     0.11000
H239        H  0.94720345  0.30503475  0.52835726     0.11100
H240        H  0.89898430  0.28004123  0.59516397     0.11000
H241        H  0.91960815  0.19440824  0.62548575     0.11200
H242        H  0.96763109  0.21965758  0.55867832     0.10000
C243        C  0.24135585  0.34157052  0.38611700    -0.03800
C244        C  0.23197843  0.30571020  0.38500590    -0.09600
C245        C  0.24690864  0.29252454  0.42208672    -0.17200
C246        C  0.27124441  0.31487520  0.46105105     0.24900
C247        C  0.28081938  0.35063456  0.46246740    -0.18900
C248        C  0.26607381  0.36395779  0.42513019    -0.07800
C249        C  0.28632552  0.30095515  0.49930667    -0.14200
C250        C  0.29855914  0.28827242  0.53016542    -0.14000
C251        C  0.31307942  0.27218303  0.56529209     0.24800
C252        C  0.30088109  0.26271309  0.61894368    -0.19400
C253        C  0.31454086  0.24638021  0.65245784    -0.07900
C254        C  0.34059067  0.23926849  0.63264654    -0.03900
C255        C  0.35279758  0.24910396  0.57876610    -0.09200
C256        C  0.33910706  0.26539389  0.54539574    -0.16900
H257        H  0.21317345  0.28784112  0.35532449     0.11300
H258        H  0.23938777  0.26483992  0.42044146     0.10500
H259        H  0.29962350  0.36819400  0.49245120     0.10500
H260        H  0.27370395  0.39164663  0.42718865     0.11000
H261        H  0.28069092  0.26777932  0.63477944     0.11100
H262        H  0.30459070  0.23917556  0.69371759     0.11000
H263        H  0.37280709  0.24403185  0.56220528     0.11200
H264        H  0.34870867  0.27252889  0.50392939     0.10000
C265        C  0.24877604  0.33935804  0.13303029    -0.03800
C266        C  0.25406098  0.31164612  0.15069147    -0.09600
C267        C  0.27112529  0.29893272  0.11693606    -0.17200
C268        C  0.28324718  0.31381200  0.06525221     0.24900
C269        C  0.27866932  0.34179025  0.04778716    -0.18900
C270        C  0.26158609  0.35449712  0.08137167    -0.07800
C271        C  0.29927135  0.29966601  0.02929634    -0.14200
C272        C  0.31151044  0.28726724  0.99794017    -0.14000
C273        C  0.32469191  0.27151825  0.95964392     0.24800
C274        C  0.30180961  0.23819450  0.93760890    -0.19400
C275        C  0.31433314  0.22269029  0.90046132    -0.07900
C276        C  0.35004163  0.24026991  0.88487741    -0.03900
C277        C  0.37286664  0.27383933  0.90708996    -0.09200
C278        C  0.36022312  0.28936545  0.94415594    -0.16900
H279        H  0.24457481  0.29945289  0.19022560     0.11300
H280        H  0.27447657  0.27722552  0.13087911     0.10500
H281        H  0.28791838  0.35351230  0.00788553     0.10500
H282        H  0.25809119  0.37594270  0.06659943     0.11000
H283        H  0.27425555  0.22413527  0.94922545     0.11100
H284        H  0.29607696  0.19679653  0.88428427     0.11000
H285        H  0.40046230  0.28809395  0.89583585     0.11200
H286        H  0.37816425  0.31522807  0.96080975     0.10000
C287        C  0.24160883  0.90714661  0.12750080    -0.03800
C288        C  0.24480688  0.93978241  0.14223573    -0.09600
C289        C  0.26043226  0.96855576  0.10643697    -0.17200
C290        C  0.27314774  0.96510406  0.05565743     0.24900
C291        C  0.27031582  0.93283788  0.04087347    -0.18900
C292        C  0.25463716  0.90404442  0.07645767    -0.07800
C293        C  0.28877349  0.99446698  0.01836882    -0.14200
C294        C  0.30159318  0.01872610  0.98649634    -0.14000
C295        C  0.31654092  0.04768267  0.94841836     0.24800
C296        C  0.30076984  0.04434993  0.89731827    -0.19400
C297        C  0.31467706  0.07283404  0.86093649    -0.07900
C298        C  0.34449419  0.10510589  0.87537601    -0.03900
C299        C  0.36046247  0.10799477  0.92652949    -0.09200
C300        C  0.34656819  0.07945632  0.96274246    -0.16900
H301        H  0.23493657  0.94298101  0.18112827     0.11300
H302        H  0.26244610  0.99342226  0.11824959     0.10500
H303        H  0.28007412  0.92987330  0.00169533     0.10500
H304        H  0.25264669  0.87932120  0.06389473     0.11000
H305        H  0.27751455  0.01985122  0.88580810     0.11100
H306        H  0.30174123  0.06977475  0.82194321     0.11000
H307        H  0.38349922  0.13242628  0.93883195     0.11200
H308        H  0.35903432  0.08229991  0.00213407     0.10000
C309        C  0.34694652  0.10778381  0.62269445    -0.03800
C310        C  0.31041934  0.08435794  0.61867272    -0.09600
C311        C  0.29723015  0.05511258  0.58379994    -0.17200
C312        C  0.32028275  0.04883539  0.55238104     0.24900
C313        C  0.35667839  0.07185582  0.55629546    -0.18900
C314        C  0.36995641  0.10110386  0.59126551    -0.07800
C315        C  0.30643893  0.01896998  0.51581941    -0.14200
C316        C  0.29381287  0.99390922  0.48528054    -0.14000
C317        C  0.27742274  0.96391402  0.44902620     0.24800
C318        C  0.24548064  0.95525495  0.42349346    -0.19400
C319        C  0.22912824  0.92591173  0.38890696    -0.07900
C320        C  0.24448679  0.90470193  0.37935604    -0.03900
C321        C  0.27670906  0.91369938  0.40500867    -0.09200
C322        C  0.29304026  0.94311646  0.43960567    -0.16900
H323        H  0.29199236  0.08864909  0.64238962     0.11300
H324        H  0.26901213  0.03747074  0.58116755     0.10500
H325        H  0.37478701  0.06728777  0.53216624     0.10500
H326        H  0.39819956  0.11861008  0.59337245     0.11000
H327        H  0.23311724  0.97112290  0.43048392     0.11100
H328        H  0.20436207  0.91976016  0.36985719     0.11000
H329        H  0.28924502  0.89796262  0.39850058     0.11200
H330        H  0.31775970  0.94954928  0.45915187     0.10000
C331        C  0.10743546  0.77244722  0.37290103    -0.03800
C332        C  0.07431706  0.76662418  0.35530073    -0.09600
C333        C  0.04479251  0.74932624  0.38919288    -0.17200
C334        C  0.04794983  0.73754881  0.44096253     0.24900
C335        C  0.08073035  0.74309406  0.45873026    -0.18900
C336        C  0.11028381  0.76041617  0.42498908    -0.07800
C337        C  0.01780377  0.72055452  0.47644209    -0.14200
C338        C  0.99304944  0.70748280  0.50726799    -0.14000
C339        C  0.96411017  0.69373766  0.54521769     0.24800
C340        C  0.94056403  0.65735901  0.54861059    -0.19400
C341        C  0.91233589  0.64432067  0.58536884    -0.07900
C342        C  0.90728597  0.66760638  0.61896081    -0.03900
C343        C  0.93125241  0.70408113  0.61540051    -0.09200
C344        C  0.95946056  0.71700189  0.57885301    -0.16900
H345        H  0.07124227  0.77557608  0.31548483     0.11300
H346        H  0.01955415  0.74529140  0.37512514     0.10500
H347        H  0.08349159  0.73418384  0.49879397     0.10500
H348        H  0.13536177  0.76442317  0.43975479     0.11000
H349        H  0.94393178  0.63911442  0.52272966     0.11100
H350        H  0.89427011  0.61612236  0.58702725     0.11000
H351        H  0.92817882  0.72269478  0.64078633     0.11200
H352        H  0.97757292  0.74519345  0.57665592     0.10000
C353        C  0.91336688  0.67393321  0.87030627    -0.03800
C354        C  0.91186084  0.65720893  0.92017633    -0.09600
C355        C  0.94148443  0.67032099  0.95405077    -0.17200
C356        C  0.97293931  0.70033315  0.93866106     0.24900
C357        C  0.97481566  0.71697978  0.88890340    -0.18900
C358        C  0.94526231  0.70382197  0.85481690    -0.07800
C359        C  0.00291790  0.71457636  0.97469878    -0.14200
C360        C  0.02746878  0.72693385  0.00600783    -0.14000
C361        C  0.05622887  0.74236078  0.04433805     0.24800
C362        C  0.06768478  0.77630358  0.06479970    -0.19400
C363        C  0.09543818  0.79137601  0.10231991    -0.07900
C364        C  0.11225778  0.77272526  0.11969656    -0.03900
C365        C  0.10052222  0.73857152  0.09897442    -0.09200
C366        C  0.07261061  0.72347277  0.06161505    -0.16900
H367        H  0.88775696  0.63406739  0.93313152     0.11300
H368        H  0.93975236  0.65724611  0.99249279     0.10500
H369        H  0.99901483  0.74030215  0.87667897     0.10500
H370        H  0.94724720  0.71733147  0.81674760     0.11000
H371        H  0.05518294  0.79114956  0.05170466     0.11100
H372        H  0.10396470  0.81778254  0.11725487     0.11000
H373        H  0.11288764  0.72353209  0.11164292     0.11200
H374        H  0.06386091  0.69712194  0.04615131     0.10000
C375        C  0.18055873  0.70159009  0.25629074    -0.03800
C376        C  0.16612713  0.68039415  0.30301227    -0.09600
C377        C  0.16003681  0.64569152  0.30395855    -0.17200
C378        C  0.16808203  0.63175657  0.25817375     0.24900
C379        C  0.18133739  0.65229059  0.21102403    -0.18900
C380        C  0.18750038  0.68689380  0.21000918    -0.07800
C381        C  0.16501509  0.59734650  0.26015024    -0.14200
C382        C  0.16556013  0.56997937  0.25951819    -0.14000
C383        C  0.16963029  0.53922839  0.25660389     0.24800
C384        C  0.18757641  0.53515248  0.21240617    -0.19400
C385        C  0.19377812  0.50669606  0.21081234    -0.07900
C386        C  0.18218853  0.48188320  0.25358810    -0.03900
C387        C  0.16346572  0.48574522  0.29731814    -0.09200
C388        C  0.15728729  0.51428452  0.29880714    -0.16900
H389        H  0.16045733  0.69091067  0.33925839     0.11300
H390        H  0.14983936  0.63005023  0.34075024     0.10500
H391        H  0.18771825  0.64182718  0.17538622     0.10500
H392        H  0.19844655  0.70238710  0.17329166     0.11000
H393        H  0.19735619  0.55435282  0.17958985     0.11100
H394        H  0.20827872  0.50455067  0.17658703     0.11000
H395        H  0.15419732  0.46712405  0.33088639     0.11200
H396        H  0.14345100  0.51722556  0.33330404     0.10000
C397        C  0.66959855  0.90036094  0.38583169    -0.03800
C398        C  0.70572123  0.92096756  0.39817068    -0.09600
C399        C  0.71752174  0.94831412  0.43644351    -0.17200
C400        C  0.69348884  0.95553793  0.46299911     0.24900
C401        C  0.65747698  0.93521482  0.45108819    -0.18900
C402        C  0.64557724  0.90778760  0.41276825    -0.07800
C403        C  0.70614255  0.98418843  0.50172578    -0.14200
C404        C  0.71873991  0.00904429  0.53264105    -0.14000
C405        C  0.73589564  0.03971315  0.56741622     0.24800
C406        C  0.74444903  0.07295874  0.54689684    -0.19400
C407        C  0.76262705  0.10307329  0.57950288    -0.07900
C408        C  0.77263648  0.10038702  0.63318885    -0.03900
C409        C  0.76361440  0.06679747  0.65368726    -0.09200
C410        C  0.74537480  0.03668105  0.62096722    -0.16900
H411        H  0.72490938  0.91591703  0.37837058     0.11300
H412        H  0.74545507  0.96388345  0.44527310     0.10500
H413        H  0.63861787  0.94058157  0.47133239     0.10500
H414        H  0.61759829  0.89236992  0.40434321     0.11000
H415        H  0.73739325  0.07566423  0.50545049     0.11100
H416        H  0.76912852  0.12849642  0.56244454     0.11000
H417        H  0.77083477  0.06380530  0.69485633     0.11200
H418        H  0.73900113  0.01109613  0.63724247     0.10000
C419        C  0.67979296  0.90922985  0.13201915    -0.03800
C420        C  0.66954720  0.90650458  0.07690432    -0.09600
C421        C  0.68312088  0.93654898  0.04380664    -0.17200
C422        C  0.70701083  0.96973657  0.06526634     0.24900
C423        C  0.71711564  0.97281088  0.12018026    -0.18900
C424        C  0.70361517  0.94277110  0.15338289    -0.07800
C425        C  0.72168615  0.00037975  0.03042599    -0.14200
C426        C  0.73415297  0.02523823  0.99961278    -0.14000
C427        C  0.74939500  0.05400790  0.96117073     0.29000
C428        C  0.77518078  0.05672518  0.92454413    -0.19400
C429        C  0.79006652  0.08450097  0.88699974    -0.07900
C430        C  0.77922392  0.10990415  0.88539515    -0.03900
C431        C  0.75307828  0.10682960  0.92209640    -0.09200
C432        C  0.73835042  0.07909697  0.95985054    -0.16900
H433        H  0.65128670  0.88111226  0.05916969     0.11300
H434        H  0.67517123  0.93384809  0.00133336     0.10500
H435        H  0.73561789  0.99836853  0.13722749     0.10500
H436        H  0.71195786  0.94579111  0.19566074     0.11000
H437        H  0.78382946  0.03738077  0.92504802     0.11100
H438        H  0.81002307  0.08604747  0.85916697     0.11000
H439        H  0.74428436  0.12604844  0.92203195     0.11200
H440        H  0.71838965  0.07724143  0.98799409     0.10000
C441        C  0.67661969  0.77263125  0.12384088    -0.03800
C442        C  0.71318058  0.78868455  0.11475310    -0.09600
C443        C  0.72681517  0.77298379  0.07993641    -0.17200
C444        C  0.70417676  0.74101116  0.05380119     0.24900
C445        C  0.66782683  0.72463413  0.06305507    -0.18900
C446        C  0.65411699  0.74029413  0.09781348    -0.07800
C447        C  0.71822881  0.72528825  0.01701437    -0.14200
C448        C  0.73045327  0.71269911  0.98597795    -0.14000
C449        C  0.74594021  0.69849304  0.94904665     0.24800
C450        C  0.73079197  0.66191625  0.94236175    -0.19400
C451        C  0.74637347  0.64821988  0.90739567    -0.07900
C452        C  0.77740035  0.67098750  0.87869625    -0.03900
C453        C  0.79219833  0.70771772  0.88530763    -0.09200
C454        C  0.77656529  0.72132395  0.92021629    -0.16900
H455        H  0.73124917  0.81353103  0.13417681     0.11300
H456        H  0.75500420  0.78590285  0.07314397     0.10500
H457        H  0.65004200  0.69985905  0.04313557     0.10500
H458        H  0.62588192  0.72717708  0.10403537     0.11000
H459        H  0.70706387  0.64397737  0.96442087     0.11100
H460        H  0.73427979  0.61983740  0.90315653     0.11000
H461        H  0.81598701  0.72598890  0.86372481     0.11200
H462        H  0.78850841  0.74967573  0.92497767     0.10000
C463        C  0.77898507  0.67539955  0.62646684    -0.03800
C464        C  0.76608734  0.65970332  0.57511496    -0.09600
C465        C  0.75114763  0.67357841  0.53942689    -0.17200
C466        C  0.74893214  0.70331856  0.55446589     0.24900
C467        C  0.76147288  0.71902620  0.60557612    -0.18900
C468        C  0.77636406  0.70512676  0.64146728    -0.07800
C469        C  0.73393288  0.71772518  0.51721913    -0.14200
C470        C  0.72134743  0.72953817  0.48555621    -0.14000
C471        C  0.70628563  0.74371826  0.44800194     0.24800
C472        C  0.67991837  0.75062725  0.46569554    -0.19400
C473        C  0.66570585  0.76508142  0.42967828    -0.07900
C474        C  0.67779092  0.77292939  0.37542266    -0.03900
C475        C  0.70403969  0.76550045  0.35780885    -0.09200
C476        C  0.71817035  0.75096218  0.39393065    -0.16900
H477        H  0.76765659  0.63676337  0.56236932     0.11300
H478        H  0.74147472  0.66120343  0.49998948     0.10500
H479        H  0.75988450  0.74208994  0.61757609     0.10500
H480        H  0.78615190  0.71785865  0.68062015     0.11000
H481        H  0.67052470  0.74508947  0.50746082     0.11100
H482        H  0.64558173  0.77052831  0.44455925     0.11000
H483        H  0.71385816  0.77118363  0.31630204     0.11200
H484        H  0.73853995  0.74563194  0.37981514     0.10000
C485        C  0.31232924  0.83166484  0.24512160    -0.03800
C486        C  0.32531480  0.81852791  0.28610290    -0.09600
C487        C  0.35974630  0.82441019  0.28352593    -0.17200
C488        C  0.38184077  0.84363102  0.24017597     0.24900
C489        C  0.36948107  0.85751648  0.19979454    -0.18900
C490        C  0.33493406  0.85157478  0.20219863    -0.07800
C491        C  0.41650668  0.84751665  0.23634136    -0.14200
C492        C  0.44428049  0.84785823  0.23542196    -0.14000
C493        C  0.47556171  0.84471141  0.23761821     0.24800
C494        C  0.49636476  0.85057651  0.19102266    -0.19400
C495        C  0.52507274  0.84468136  0.19269758    -0.07900
C496        C  0.53310209  0.83256737  0.24096370    -0.03900
C497        C  0.51253023  0.82762401  0.28783104    -0.09200
C498        C  0.48404029  0.83366781  0.28612152    -0.16900
H499        H  0.30863505  0.80302961  0.31962101     0.11300
H500        H  0.36895028  0.81343111  0.31493324     0.10500
H501        H  0.38631842  0.87241009  0.16600220     0.10500
H502        H  0.32577465  0.86211239  0.17008942     0.11000
H503        H  0.48998098  0.85899352  0.15315840     0.11100
H504        H  0.54034970  0.84867194  0.15590908     0.11000
H505        H  0.51807609  0.81849538  0.32570303     0.11200
H506        H  0.46813267  0.82897589  0.32241511     0.10000
C507        C  0.31376498  0.48154867  0.25417891    -0.03800
C508        C  0.32684826  0.50440545  0.29945182    -0.09600
C509        C  0.36163892  0.53233050  0.30013684    -0.17200
C510        C  0.38393665  0.53784455  0.25573707     0.24900
C511        C  0.37150971  0.51467729  0.21112356    -0.18900
C512        C  0.33667974  0.48665599  0.21035623    -0.07800
C513        C  0.41855337  0.56875461  0.25454739    -0.14200
C514        C  0.44599076  0.59645271  0.25352769    -0.14000
C515        C  0.47665119  0.63125869  0.25167711     0.24800
C516        C  0.48161101  0.65329026  0.20705902    -0.19400
C517        C  0.50974885  0.68799968  0.20654663    -0.07900
C518        C  0.53338520  0.70131622  0.25084258    -0.03900
C519        C  0.52858952  0.67878383  0.29516389    -0.09200
C520        C  0.50037380  0.64398903  0.29554974    -0.16900
H521        H  0.30999235  0.50119562  0.33390812     0.11300
H522        H  0.37089474  0.55014978  0.33479386     0.10500
H523        H  0.38846444  0.51874444  0.17639741     0.10500
H524        H  0.32748684  0.46950781  0.17494302     0.11000
H525        H  0.46331708  0.64384023  0.17303234     0.11100
H526        H  0.51256724  0.70460543  0.17186261     0.11000
H527        H  0.54626583  0.68820299  0.32991732     0.11200
H528        H  0.49670288  0.62725260  0.33047367     0.10000
loop_ 
_geom_bond_atom_site_label_1 
_geom_bond_atom_site_label_2 
_geom_bond_distance 
_geom_bond_site_symmetry_2 
_ccdc_geom_bond_type 
O1          Cr19   1.975       .  S
O1            C9   1.260       .  A
O2          Cr19   2.011       .  S
O2            C3   1.267       .  A
C3            O4   1.260       .  A
C3          C397   1.484       .  S
O4          Cr20   1.978       .  S
O5          Cr20   2.006       .  S
O5            C6   1.267       .  A
C6            O7   1.262       .  A
C6          C496   1.483       .  S
O7          Cr21   1.981       .  S
O8          Cr21   2.012       .  S
O8            C9   1.268       .  A
C9          C419   1.482       .  S
O10         Cr19   2.013       .  S
O10          C18   1.267       .  A
O11         Cr19   1.975       .  S
O11          C12   1.261       .  A
C12          O13   1.267       .  A
C12         C474   1.480       .  S
O13         Cr20   2.008       .  S
O14         Cr20   1.980       .  S
O14          C15   1.261       .  A
C15          O16   1.267       .  A
C15         C518   1.484       .  S
O16         Cr21   2.009       .  S
O17         Cr21   1.979       .  S
O17          C18   1.261       .  A
C18         C441   1.484       .  S
Cr19         O22   1.771       .  S
Cr20         O22   1.769       .  S
Cr21         O22   1.771       .  S
O23         Cr41   2.009       .  S
O23          C31   1.266       .  A
O24         Cr41   1.977       .  S
O24          C25   1.261       .  A
C25          O26   1.267       .  A
C25         C331   1.481       .  S
O26         Cr42   2.008       .  S
O27         Cr42   1.982       .  S
O27          C28   1.261       .  A
C28          O29   1.266       .  A
C28         C375   1.482       .  S
O29         Cr43   2.004       .  S
O30         Cr43   1.977       .  S
O30          C31   1.260       .  A
C31         C364   1.480       .  S
O32         Cr41   1.978       .  S
O32          C40   1.261       .  A
O33         Cr41   2.010       .  S
O33          C34   1.267       .  A
C34          O35   1.261       .  A
C34         C320   1.484       .  S
O35         Cr42   1.980       .  S
O36         Cr42   2.009       .  S
O36          C37   1.267       .  A
C37          O38   1.261       .  A
C37         C485   1.483       .  S
O38         Cr43   1.980       .  S
O39         Cr43   2.006       .  S
O39          C40   1.266       .  A
C40         C287   1.481       .  S
Cr41         O44   1.771       .  S
Cr42         O44   1.771       .  S
Cr43         O44   1.768       .  S
O45         Cr63   1.979       .  S
O45          C53   1.261       .  A
O46         Cr63   2.012       .  S
O46          C47   1.268       .  A
C47          O48   1.262       .  A
C47         C210   1.485       .  S
O48         Cr64   1.980       .  S
O49         Cr64   2.009       .  S
O49          C50   1.266       .  A
C50          O51   1.260       .  A
C50         C386   1.483       .  S
O51         Cr65   1.978       .  S
O52         Cr65   2.008       .  S
O52          C53   1.267       .  A
C53         C221   1.483       .  S
O54         Cr63   2.008       .  S
O54          C62   1.266       .  A
O55         Cr63   1.979       .  S
O55          C56   1.261       .  A
C56          O57   1.266       .  A
C56         C265   1.483       .  S
O57         Cr64   2.008       .  S
O58         Cr64   1.977       .  S
O58          C59   1.261       .  A
C59          O60   1.268       .  A
C59         C507   1.484       .  S
O60         Cr65   2.012       .  S
O61         Cr65   1.978       .  S
O61          C62   1.260       .  A
C62         C243   1.482       .  S
Cr63         O66   1.772       .  S
Cr64         O66   1.772       .  S
Cr65         O66   1.772       .  S
O67         Cr85   1.973       .  S
O67          C75   1.260       .  A
O68         Cr85   2.006       .  S
O68          C69   1.266       .  A
C69          O70   1.261       .  A
C69         C342   1.480       .  S
O70         Cr86   1.977       .  S
O71         Cr86   2.002       .  S
O71          C72   1.265       .  A
C72          O73   1.261       .  A
C72         C188   1.480       .  S
O73         Cr87   1.980       .  S
O74         Cr87   2.009       .  S
O74          C75   1.267       .  A
C75         C353   1.480       .  S
O76         Cr85   2.007       .  S
O76          C84   1.266       .  A
O77         Cr85   1.976       .  S
O77          C78   1.261       .  A
C78          O79   1.266       .  A
C78         C463   1.479       .  S
O79         Cr86   2.004       .  S
O80         Cr86   1.975       .  S
O80          C81   1.260       .  A
C81          O82   1.267       .  A
C81         C166   1.480       .  S
O82         Cr87   2.007       .  S
O83         Cr87   1.979       .  S
O83          C84   1.260       .  A
C84         C452   1.483       .  S
Cr85         O88   1.770       .  S
Cr86         O88   1.771       .  S
Cr87         O88   1.771       .  S
O89        Cr107   2.012       .  S
O89          C97   1.267       .  A
O90        Cr107   1.981       .  S
O90          C91   1.262       .  A
C91          O92   1.266       .  A
C91         C199   1.483       .  S
O92        Cr108   2.006       .  S
O93        Cr108   1.976       .  S
O93          C94   1.260       .  A
C94          O95   1.266       .  A
C94         C177   1.480       .  S
O95        Cr109   2.005       .  S
O96        Cr109   1.979       .  S
O96          C97   1.261       .  A
C97         C232   1.485       .  S
O98        Cr107   1.980       .  S
O98         C106   1.261       .  A
O99        Cr107   2.008       .  S
O99         C100   1.266       .  A
C100        O101   1.260       .  A
C100        C430   1.481       .  S
O101       Cr108   1.975       .  S
O102       Cr108   2.004       .  S
O102        C103   1.266       .  A
C103        O104   1.261       .  A
C103        C133   1.481       .  S
O104       Cr109   1.979       .  S
O105       Cr109   2.008       .  S
O105        C106   1.266       .  A
C106        C408   1.483       .  S
Cr107       O110   1.771       .  S
Cr108       O110   1.771       .  S
Cr109       O110   1.772       .  S
O111       Cr129   2.011       .  S
O111        C119   1.267       .  A
O112       Cr129   1.977       .  S
O112        C113   1.261       .  A
C113        O114   1.266       .  A
C113        C298   1.481       .  S
O114       Cr130   2.007       .  S
O115       Cr130   1.978       .  S
O115        C116   1.261       .  A
C116        O117   1.267       .  A
C116        C144   1.481       .  S
O117       Cr131   2.008       .  S
O118       Cr131   1.977       .  S
O118        C119   1.260       .  A
C119        C309   1.483       .  S
O120       Cr129   1.979       .  S
O120        C128   1.261       .  A
O121       Cr129   2.010       .  S
O121        C122   1.267       .  A
C122        O123   1.261       .  A
C122        C276   1.483       .  S
O123       Cr130   1.979       .  S
O124       Cr130   2.004       .  S
O124        C125   1.266       .  A
C125        O126   1.261       .  A
C125        C155   1.481       .  S
O126       Cr131   1.979       .  S
O127       Cr131   2.009       .  S
O127        C128   1.267       .  A
C128        C254   1.483       .  S
Cr129       O132   1.771       .  S
Cr130       O132   1.770       .  S
Cr131       O132   1.771       .  S
C133        C134   1.407       .  A
C133        C138   1.408       .  A
C134        C135   1.400       .  A
C134        H147   1.083       .  S
C135        C136   1.400       .  A
C135        H148   1.083       .  S
C136        C137   1.399       .  A
C136        C139   1.439       .  S
C137        C138   1.397       .  A
C137        H149   1.084       .  S
C138        H150   1.083       .  S
C139        C140   1.206       .  T
C140        C141   1.439       .  S
C141        C142   1.400       .  A
C141        C146   1.399       .  A
C142        C143   1.400       .  A
C142        H151   1.083       .  S
C143        C144   1.408       .  A
C143        H152   1.083       .  S
C144        C145   1.408       .  A
C145        C146   1.397       .  A
C145        H153   1.083       .  S
C146        H154   1.084       .  S
C155        C156   1.407       .  A
C155        C160   1.408       .  A
C156        C157   1.396       .  A
C156        H169   1.083       .  S
C157        C158   1.398       .  A
C157        H170   1.084       .  S
C158        C159   1.400       .  A
C158        C161   1.439       .  S
C159        C160   1.400       .  A
C159        H171   1.083       .  S
C160        H172   1.083       .  S
C161        C162   1.205       .  T
C162        C163   1.439       .  S
C163        C164   1.399       .  A
C163        C168   1.399       .  A
C164        C165   1.399       .  A
C164        H173   1.083       .  S
C165        C166   1.408       .  A
C165        H174   1.083       .  S
C166        C167   1.407       .  A
C167        C168   1.397       .  A
C167        H175   1.083       .  S
C168        H176   1.084       .  S
C177        C178   1.407       .  A
C177        C182   1.408       .  A
C178        C179   1.396       .  A
C178        H191   1.083       .  S
C179        C180   1.399       .  A
C179        H192   1.084       .  S
C180        C181   1.400       .  A
C180        C183   1.438       .  S
C181        C182   1.399       .  A
C181        H193   1.083       .  S
C182        H194   1.083       .  S
C183        C184   1.205       .  T
C184        C185   1.438       .  S
C185        C186   1.400       .  A
C185        C190   1.398       .  A
C186        C187   1.400       .  A
C186        H195   1.083       .  S
C187        C188   1.407       .  A
C187        H196   1.083       .  S
C188        C189   1.408       .  A
C189        C190   1.396       .  A
C189        H197   1.083       .  S
C190        H198   1.084       .  S
C199        C200   1.407       .  A
C199        C204   1.408       .  A
C200        C201   1.401       .  A
C200        H213   1.083       .  S
C201        C202   1.401       .  A
C201        H214   1.083   1_655  S
C202        C203   1.399       .  A
C202        C205   1.443   1_655  S
C203        C204   1.398       .  A
C203        H215   1.083       .  S
C204        H216   1.083       .  S
C205        C206   1.208   1_556  T
C206        C207   1.443       .  S
C207        C208   1.401       .  A
C207        C212   1.399       .  A
C208        C209   1.401       .  A
C208        H217   1.083       .  S
C209        C210   1.408       .  A
C209        H218   1.083       .  S
C210        C211   1.408       .  A
C211        C212   1.399       .  A
C211        H219   1.083       .  S
C212        H220   1.084       .  S
C221        C222   1.407       .  A
C221        C226   1.408       .  A
C222        C223   1.398       .  A
C222        H235   1.083       .  S
C223        C224   1.399       .  A
C223        H236   1.083       .  S
C224        C225   1.401       .  A
C224        C227   1.443       .  S
C225        C226   1.401       .  A
C225        H237   1.083       .  S
C226        H238   1.083       .  S
C227        C228   1.208   1_455  T
C228        C229   1.443       .  S
C229        C230   1.401       .  A
C229        C234   1.399       .  A
C230        C231   1.401       .  A
C230        H239   1.083       .  S
C231        C232   1.408       .  A
C231        H240   1.083       .  S
C232        C233   1.408       .  A
C233        C234   1.399       .  A
C233        H241   1.083       .  S
C234        H242   1.084       .  S
C243        C244   1.407       .  A
C243        C248   1.408       .  A
C244        C245   1.398       .  A
C244        H257   1.083       .  S
C245        C246   1.399       .  A
C245        H258   1.084       .  S
C246        C247   1.401       .  A
C246        C249   1.442       .  S
C247        C248   1.401       .  A
C247        H259   1.083       .  S
C248        H260   1.083       .  S
C249        C250   1.207       .  T
C250        C251   1.442       .  S
C251        C252   1.401       .  A
C251        C256   1.399       .  A
C252        C253   1.401       .  A
C252        H261   1.083       .  S
C253        C254   1.408       .  A
C253        H262   1.083       .  S
C254        C255   1.408       .  A
C255        C256   1.398       .  A
C255        H263   1.083       .  S
C256        H264   1.083       .  S
C265        C266   1.408       .  A
C265        C270   1.408       .  A
C266        C267   1.400       .  A
C266        H279   1.083       .  S
C267        C268   1.401       .  A
C267        H280   1.083       .  S
C268        C269   1.399       .  A
C268        C271   1.442       .  S
C269        C270   1.398       .  A
C269        H281   1.083       .  S
C270        H282   1.083       .  S
C271        C272   1.207   1_554  T
C272        C273   1.442       .  S
C273        C274   1.399       .  A
C273        C278   1.401       .  A
C274        C275   1.398       .  A
C274        H283   1.084       .  S
C275        C276   1.408       .  A
C275        H284   1.083       .  S
C276        C277   1.408       .  A
C277        C278   1.401       .  A
C277        H285   1.083       .  S
C278        H286   1.083       .  S
C287        C288   1.407       .  A
C287        C292   1.408       .  A
C288        C289   1.400       .  A
C288        H301   1.083       .  S
C289        C290   1.400       .  A
C289        H302   1.084       .  S
C290        C291   1.398       .  A
C290        C293   1.439       .  S
C291        C292   1.397       .  A
C291        H303   1.083       .  S
C292        H304   1.083       .  S
C293        C294   1.206   1_564  T
C294        C295   1.440       .  S
C295        C296   1.400       .  A
C295        C300   1.399       .  A
C296        C297   1.399       .  A
C296        H305   1.084       .  S
C297        C298   1.407       .  A
C297        H306   1.083       .  S
C298        C299   1.408       .  A
C299        C300   1.398       .  A
C299        H307   1.083       .  S
C300        H308   1.083   1_556  S
C309        C310   1.408       .  A
C309        C314   1.408       .  A
C310        C311   1.399       .  A
C310        H323   1.083       .  S
C311        C312   1.400       .  A
C311        H324   1.084       .  S
C312        C313   1.400       .  A
C312        C315   1.442       .  S
C313        C314   1.400       .  A
C313        H325   1.083       .  S
C314        H326   1.083       .  S
C315        C316   1.207   1_545  T
C316        C317   1.442       .  S
C317        C318   1.399       .  A
C317        C322   1.400       .  A
C318        C319   1.398       .  A
C318        H327   1.084       .  S
C319        C320   1.408       .  A
C319        H328   1.083       .  S
C320        C321   1.408       .  A
C321        C322   1.400       .  A
C321        H329   1.083       .  S
C322        H330   1.083       .  S
C331        C332   1.407       .  A
C331        C336   1.408       .  A
C332        C333   1.399       .  A
C332        H345   1.083       .  S
C333        C334   1.400       .  A
C333        H346   1.084       .  S
C334        C335   1.399       .  A
C334        C337   1.439       .  S
C335        C336   1.398       .  A
C335        H347   1.084       .  S
C336        H348   1.083       .  S
C337        C338   1.206   1_455  T
C338        C339   1.439       .  S
C339        C340   1.400       .  A
C339        C344   1.398       .  A
C340        C341   1.400       .  A
C340        H349   1.083       .  S
C341        C342   1.408       .  A
C341        H350   1.083       .  S
C342        C343   1.407       .  A
C343        C344   1.396       .  A
C343        H351   1.083       .  S
C344        H352   1.084       .  S
C353        C354   1.407       .  A
C353        C358   1.408       .  A
C354        C355   1.398       .  A
C354        H367   1.083       .  S
C355        C356   1.399       .  A
C355        H368   1.083       .  S
C356        C357   1.400       .  A
C356        C359   1.439   1_655  S
C357        C358   1.398       .  A
C357        H369   1.084       .  S
C358        H370   1.083       .  S
C359        C360   1.205   1_556  T
C360        C361   1.439       .  S
C361        C362   1.399       .  A
C361        C366   1.400       .  A
C362        C363   1.397       .  A
C362        H371   1.084       .  S
C363        C364   1.407       .  A
C363        H372   1.083       .  S
C364        C365   1.407       .  A
C365        C366   1.399       .  A
C365        H373   1.083       .  S
C366        H374   1.083       .  S
C375        C376   1.408       .  A
C375        C380   1.407       .  A
C376        C377   1.401       .  A
C376        H389   1.083       .  S
C377        C378   1.401       .  A
C377        H390   1.083       .  S
C378        C379   1.398       .  A
C378        C381   1.441       .  S
C379        C380   1.396       .  A
C379        H391   1.084       .  S
C380        H392   1.083       .  S
C381        C382   1.207       .  T
C382        C383   1.441       .  S
C383        C384   1.399       .  A
C383        C388   1.400       .  A
C384        C385   1.398       .  A
C384        H393   1.084       .  S
C385        C386   1.407       .  A
C385        H394   1.083       .  S
C386        C387   1.408       .  A
C387        C388   1.400       .  A
C387        H395   1.083       .  S
C388        H396   1.083       .  S
C397        C398   1.407       .  A
C397        C402   1.408       .  A
C398        C399   1.398       .  A
C398        H411   1.083       .  S
C399        C400   1.399       .  A
C399        H412   1.084       .  S
C400        C401   1.400       .  A
C400        C403   1.442       .  S
C401        C402   1.401       .  A
C401        H413   1.083       .  S
C402        H414   1.083       .  S
C403        C404   1.207   1_565  T
C404        C405   1.441       .  S
C405        C406   1.399       .  A
C405        C410   1.400       .  A
C406        C407   1.398       .  A
C406        H415   1.084       .  S
C407        C408   1.408       .  A
C407        H416   1.083       .  S
C408        C409   1.408       .  A
C409        C410   1.400       .  A
C409        H417   1.083       .  S
C410        H418   1.083       .  S
C419        C420   1.407       .  A
C419        C424   1.408       .  A
C420        C421   1.398       .  A
C420        H433   1.083       .  S
C421        C422   1.399       .  A
C421        H434   1.084       .  S
C422        C423   1.400       .  A
C422        C425   1.440   1_565  S
C423        C424   1.399       .  A
C423        H435   1.083       .  S
C424        H436   1.083       .  S
C425        C426   1.206   1_554  T
C426        C427   1.440       .  S
C427        C428   1.399       .  A
C427        C432   1.400       .  A
C428        C429   1.398       .  A
C428        H437   1.084       .  S
C429        C430   1.407       .  A
C429        H438   1.083       .  S
C430        C431   1.408       .  A
C431        C432   1.400       .  A
C431        H439   1.083       .  S
C432        H440   1.083       .  S
C441        C442   1.408       .  A
C441        C446   1.408       .  A
C442        C443   1.400       .  A
C442        H455   1.083       .  S
C443        C444   1.400       .  A
C443        H456   1.084       .  S
C444        C445   1.400       .  A
C444        C447   1.442       .  S
C445        C446   1.400       .  A
C445        H457   1.083       .  S
C446        H458   1.083       .  S
C447        C448   1.207   1_554  T
C448        C449   1.442       .  S
C449        C450   1.400       .  A
C449        C454   1.399       .  A
C450        C451   1.400       .  A
C450        H459   1.083       .  S
C451        C452   1.408       .  A
C451        H460   1.083       .  S
C452        C453   1.408       .  A
C453        C454   1.398       .  A
C453        H461   1.083       .  S
C454        H462   1.084       .  S
C463        C464   1.407       .  A
C463        C468   1.407       .  A
C464        C465   1.396       .  A
C464        H477   1.083       .  S
C465        C466   1.398       .  A
C465        H478   1.084       .  S
C466        C467   1.400       .  A
C466        C469   1.438       .  S
C467        C468   1.399       .  A
C467        H479   1.084       .  S
C468        H480   1.083       .  S
C469        C470   1.205       .  T
C470        C471   1.438       .  S
C471        C472   1.398       .  A
C471        C476   1.400       .  A
C472        C473   1.397       .  A
C472        H481   1.084       .  S
C473        C474   1.408       .  A
C473        H482   1.083       .  S
C474        C475   1.407       .  A
C475        C476   1.399       .  A
C475        H483   1.083       .  S
C476        H484   1.084       .  S
C485        C486   1.407       .  A
C485        C490   1.408       .  A
C486        C487   1.398       .  A
C486        H499   1.083       .  S
C487        C488   1.399       .  A
C487        H500   1.084       .  S
C488        C489   1.401       .  A
C488        C491   1.443       .  S
C489        C490   1.401       .  A
C489        H501   1.083       .  S
C490        H502   1.083       .  S
C491        C492   1.208       .  T
C492        C493   1.442       .  S
C493        C494   1.401       .  A
C493        C498   1.399       .  A
C494        C495   1.402       .  A
C494        H503   1.083       .  S
C495        C496   1.408       .  A
C495        H504   1.083       .  S
C496        C497   1.407       .  A
C497        C498   1.397       .  A
C497        H505   1.083       .  S
C498        H506   1.084       .  S
C507        C508   1.407       .  A
C507        C512   1.409       .  A
C508        C509   1.398       .  A
C508        H521   1.083       .  S
C509        C510   1.399       .  A
C509        H522   1.084       .  S
C510        C511   1.401       .  A
C510        C513   1.442       .  S
C511        C512   1.401       .  A
C511        H523   1.083       .  S
C512        H524   1.083       .  S
C513        C514   1.208       .  T
C514        C515   1.442       .  S
C515        C516   1.399       .  A
C515        C520   1.401       .  A
C516        C517   1.398       .  A
C516        H525   1.084       .  S
C517        C518   1.408       .  A
C517        H526   1.083       .  S
C518        C519   1.408       .  A
C519        C520   1.401       .  A
C519        H527   1.083       .  S
C520        H528   1.083       .  S
