geometry optimzed in LAMMPS
_audit_creation_date              2020-12-01 
_audit_creation_method            'lammps2cif' 
_symmetry_space_group_name_H-M    'P1' 
_symmetry_Int_Tables_number       1 
_symmetry_cell_setting            triclinic 
loop_ 
_symmetry_equiv_pos_as_xyz 
  x,y,z 
_cell_length_a                    43.13084279 
_cell_length_b                    43.06577281114848 
_cell_length_c                    25.120161824168516 
_cell_angle_alpha                 89.8328467458822 
_cell_angle_beta                  90.3628669871375 
_cell_angle_gamma                 90.22551011590318 
loop_ 
_atom_site_label 
_atom_site_type_symbol 
_atom_site_fract_x 
_atom_site_fract_y 
_atom_site_fract_z 
_atom_site_charge 
N1          N  0.21580286  0.41936681  0.05464331    -0.36300
N2          N  0.28392366  0.41329991  0.05846445    -0.56900
N3          N  0.28458693  0.41050628  0.94439670    -0.36300
N4          N  0.21663407  0.41688574  0.94050896    -0.56900
C5          C  0.22185031  0.42748979  0.10569693     0.27300
C6          C  0.18604511  0.42756612  0.04399304     0.27300
C7          C  0.31366362  0.40023663  0.95520917     0.27300
C8          C  0.27801883  0.40251832  0.89346839     0.27300
C9          C  0.27772603  0.41263091  0.11113582     0.35900
C10         C  0.31439439  0.40648975  0.05326613     0.35900
C11         C  0.18625996  0.42377403  0.94592097     0.35900
C12         C  0.22323186  0.42021974  0.88836223     0.35900
C13         C  0.19597285  0.44135399  0.12749389    -0.21600
C14         C  0.17352645  0.44164839  0.08863595    -0.21600
C15         C  0.32513747  0.38499254  0.91087517    -0.21600
C16         C  0.30278618  0.38664439  0.87195552    -0.21600
C17         C  0.30401785  0.40446523  0.13956975    -0.22600
C18         C  0.32712913  0.40047159  0.10324353    -0.22600
C19         C  0.17393950  0.43274787  0.89705398    -0.22600
C20         C  0.19735867  0.43054715  0.86075480    -0.22600
C21         C  0.24930887  0.42106567  0.13460583    -0.18000
C22         C  0.17007062  0.42322020  0.99484130    -0.18000
C23         C  0.25120663  0.41100107  0.86444241    -0.18000
C24         C  0.33021127  0.40436926  0.00380241    -0.18000
H25         H  0.19354419  0.45051861  0.16732241     0.14900
H26         H  0.15104878  0.45235256  0.09275743     0.14900
H27         H  0.34692236  0.37293328  0.90697288     0.14900
H28         H  0.30453995  0.37711880  0.83225877     0.14900
H29         H  0.30635943  0.40144213  0.18219745     0.13200
H30         H  0.34999524  0.39232530  0.11365478     0.13200
H31         H  0.15106322  0.44150396  0.88806633     0.13200
H32         H  0.19542121  0.43574857  0.81868509     0.13200
H33         H  0.23001844  0.40591355  0.03075599     0.26500
H34         H  0.27138225  0.42524929  0.96783059     0.26500
N35         N  0.28422104  0.41930250  0.44277536    -0.36300
N36         N  0.21595416  0.42406035  0.44324664    -0.56900
N37         N  0.21575102  0.41364846  0.55634106    -0.36300
N38         N  0.28398821  0.40878415  0.55590345    -0.56900
C39         C  0.27748026  0.41663958  0.39023062     0.27300
C40         C  0.31374323  0.40915019  0.44980337     0.27300
C41         C  0.18618678  0.42351410  0.54911683     0.27300
C42         C  0.22263212  0.41731061  0.60861077     0.27300
C43         C  0.22161988  0.43133407  0.39182535     0.35900
C44         C  0.18532627  0.42895696  0.45104853     0.35900
C45         C  0.31441079  0.40288860  0.54796167     0.35900
C46         C  0.27814420  0.40155300  0.60725380     0.35900
C47         C  0.30275296  0.40465926  0.36368262    -0.21600
C48         C  0.32543662  0.39970213  0.40105070    -0.21600
C49         C  0.17455328  0.43390935  0.59728347    -0.21600
C50         C  0.19745074  0.42991456  0.63466304    -0.21600
C51         C  0.19493480  0.44205908  0.36733722    -0.22600
C52         C  0.17204656  0.44078223  0.40465865    -0.22600
C53         C  0.32737990  0.39053768  0.59417031    -0.22600
C54         C  0.30449900  0.38985555  0.63153425    -0.22600
C55         C  0.24951779  0.42540683  0.36479535    -0.18000
C56         C  0.33018242  0.40748376  0.49903932    -0.18000
C57         C  0.25042228  0.40828050  0.63429338    -0.18000
C58         C  0.16967642  0.42406647  0.50007558    -0.18000
H59         H  0.30450931  0.39933548  0.32172327     0.14900
H60         H  0.34730582  0.38864218  0.39275980     0.14900
H61         H  0.15251326  0.44482179  0.60492261     0.14900
H62         H  0.19581238  0.43601555  0.67632022     0.14900
H63         H  0.19218987  0.44993317  0.32661254     0.13200
H64         H  0.14882330  0.44923997  0.39794868     0.13200
H65         H  0.35037115  0.38142208  0.60066947     0.13200
H66         H  0.30704910  0.38171615  0.67213398     0.13200
H67         H  0.27043334  0.43010954  0.47099906     0.26500
H68         H  0.22936378  0.40222179  0.52855897     0.26500
N69         N  0.42955976  0.20162684  0.05575659    -0.36300
N70         N  0.42531075  0.20210610  0.94187047    -0.56900
N71         N  0.42780038  0.26995201  0.94281212    -0.36300
N72         N  0.42955183  0.26945092  0.05672033    -0.56900
C73         C  0.41919551  0.17251847  0.04545735     0.27300
C74         C  0.42200779  0.20832930  0.10658050     0.27300
C75         C  0.41706673  0.26337151  0.89349578     0.27300
C76         C  0.41873693  0.29920245  0.95437665     0.27300
C77         C  0.43263058  0.17203062  0.95033349     0.35900
C78         C  0.43232150  0.20844683  0.89072560     0.35900
C79         C  0.43902152  0.26300219  0.10685122     0.35900
C80         C  0.43718325  0.29943390  0.04717843     0.35900
C81         C  0.40427659  0.16092345  0.09025657    -0.21600
C82         C  0.40634187  0.18344523  0.12894738    -0.21600
C83         C  0.40070642  0.28840502  0.87340244    -0.21600
C84         C  0.40138971  0.31093955  0.91210499    -0.21600
C85         C  0.44511608  0.15943542  0.90434115    -0.22600
C86         C  0.44460846  0.18252325  0.86639103    -0.22600
C87         C  0.45319159  0.28877997  0.12924088    -0.22600
C88         C  0.45225081  0.31184815  0.09131177    -0.22600
C89         C  0.42526596  0.15591125  0.99787682    -0.18000
C90         C  0.43161851  0.23529049  0.13411601    -0.18000
C91         C  0.42793829  0.31572857  0.00063847    -0.18000
C92         C  0.42413946  0.23629430  0.86491633    -0.18000
H93         H  0.39292802  0.13867418  0.09506799     0.14900
H94         H  0.39755952  0.18160818  0.16910531     0.14900
H95         H  0.38950823  0.29022097  0.83483693     0.14900
H96         H  0.39018884  0.33327298  0.90902417     0.14900
H97         H  0.45373670  0.13619850  0.89819407     0.13200
H98         H  0.45197207  0.18038092  0.82545285     0.13200
H99         H  0.46282599  0.29084082  0.16897673     0.13200
H100        H  0.46170693  0.33495202  0.09617986     0.13200
H101        H  0.44430191  0.21477902  0.03181064     0.26500
H102        H  0.44360257  0.25658692  0.96444190     0.26500
N103        N  0.42716973  0.27293475  0.55647714    -0.36300
N104        N  0.42430675  0.20517932  0.55776665    -0.56900
N105        N  0.42799504  0.20492708  0.44388680    -0.36300
N106        N  0.42869716  0.27270785  0.44263895    -0.56900
C107        C  0.41717404  0.26639528  0.60614942     0.27300
C108        C  0.41858756  0.30242630  0.54502463     0.27300
C109        C  0.41701412  0.17610498  0.45459167     0.27300
C110        C  0.41955757  0.21190031  0.39338551     0.27300
C111        C  0.43183186  0.21123988  0.60886518     0.35900
C112        C  0.43137569  0.17508456  0.54929645     0.35900
C113        C  0.43641536  0.30266914  0.45195286     0.35900
C114        C  0.43760112  0.26618515  0.39246908     0.35900
C115        C  0.40177773  0.29174758  0.62669450    -0.21600
C116        C  0.40223192  0.31438251  0.58785358    -0.21600
C117        C  0.40081304  0.16500051  0.41060575    -0.21600
C118        C  0.40266828  0.18754121  0.37179936    -0.21600
C119        C  0.44415306  0.18511262  0.63308881    -0.22600
C120        C  0.44415556  0.16218884  0.59515692    -0.22600
C121        C  0.45108936  0.31503525  0.40754373    -0.22600
C122        C  0.45164273  0.29191567  0.36973966    -0.22600
C123        C  0.42458717  0.23917354  0.63472248    -0.18000
C124        C  0.42749102  0.31896319  0.49846298    -0.18000
C125        C  0.42896579  0.23873322  0.36544842    -0.18000
C126        C  0.42357372  0.15923380  0.50180374    -0.18000
H127        H  0.39149703  0.29376608  0.66572471     0.14900
H128        H  0.39161520  0.33696530  0.59134291     0.14900
H129        H  0.38876379  0.14305531  0.40658209     0.14900
H130        H  0.39280007  0.18613769  0.33214940     0.14900
H131        H  0.45200221  0.18275680  0.67391419     0.13200
H132        H  0.45269088  0.13887491  0.60120328     0.13200
H133        H  0.46034237  0.33820175  0.40233705     0.13200
H134        H  0.46061090  0.29401586  0.32973830     0.13200
H135        H  0.44240993  0.25934021  0.53458453     0.26500
H136        H  0.44353287  0.21762327  0.46730108     0.26500
N137        N  0.21492053  0.06270582  0.05504847    -0.36300
N138        N  0.28290769  0.06186642  0.05594051    -0.56900
N139        N  0.28255675  0.06497189  0.94223302    -0.36300
N140        N  0.21465525  0.06877370  0.94112087    -0.56900
C141        C  0.22204483  0.06980455  0.10603790     0.27300
C142        C  0.18585267  0.07320640  0.04537321     0.27300
C143        C  0.31247118  0.07228294  0.95335332     0.27300
C144        C  0.27619429  0.07563455  0.89271018     0.27300
C145        C  0.27666711  0.05289264  0.10628173     0.35900
C146        C  0.31269273  0.05401243  0.04654890     0.35900
C147        C  0.18469943  0.06086851  0.94978813     0.35900
C148        C  0.22069056  0.06179942  0.88981106     0.35900
C149        C  0.19750637  0.08528442  0.12912084    -0.21600
C150        C  0.17476946  0.08778280  0.09068885    -0.21600
C151        C  0.32495726  0.08845418  0.91051101    -0.21600
C152        C  0.30212349  0.09023187  0.87203937    -0.21600
C153        C  0.30239010  0.03900031  0.12914680    -0.22600
C154        C  0.32517210  0.03937443  0.09111673    -0.22600
C155        C  0.17195746  0.04820517  0.90369836    -0.22600
C156        C  0.19468621  0.04915821  0.86562524    -0.22600
C157        C  0.24910164  0.06020074  0.13315528    -0.18000
C158        C  0.16882951  0.06743839  0.99785863    -0.18000
C159        C  0.24876917  0.06894181  0.86394396    -0.18000
C160        C  0.32885985  0.06253478  0.99969643    -0.18000
H161        H  0.19609211  0.09378462  0.16954064     0.14900
H162        H  0.15276946  0.09925808  0.09601704     0.14900
H163        H  0.34807216  0.09798871  0.90680384     0.14900
H164        H  0.30446578  0.10062053  0.83297372     0.14900
H165        H  0.30455790  0.02983269  0.16917001     0.13200
H166        H  0.34815912  0.02987945  0.09625596     0.13200
H167        H  0.14897512  0.03875629  0.89759212     0.13200
H168        H  0.19238380  0.04133109  0.82487572     0.13200
H169        H  0.22774137  0.04817741  0.03049757     0.26500
H170        H  0.26847626  0.04997225  0.96406894     0.26500
N171        N  0.28201881  0.06577166  0.55511707    -0.36300
N172        N  0.28157328  0.06397900  0.44139985    -0.56900
N173        N  0.21345236  0.06419516  0.44119922    -0.36300
N174        N  0.21406841  0.06888404  0.55516570    -0.56900
C175        C  0.31163294  0.07392346  0.54402256     0.27300
C176        C  0.27575435  0.07623948  0.60452981     0.27300
C177        C  0.22022731  0.07173728  0.39028425     0.27300
C178        C  0.18424148  0.07415988  0.45087895     0.27300
C179        C  0.31157580  0.05657024  0.45066024     0.35900
C180        C  0.27527404  0.05576943  0.39067077     0.35900
C181        C  0.22044035  0.06175637  0.60648485     0.35900
C182        C  0.18401457  0.06118445  0.54652314     0.35900
C183        C  0.32402760  0.09035124  0.58673349    -0.21600
C184        C  0.30143874  0.09148938  0.62514876    -0.21600
C185        C  0.19522473  0.08674558  0.36710282    -0.21600
C186        C  0.17263787  0.08863391  0.40542928    -0.21600
C187        C  0.32413422  0.04293861  0.40568673    -0.22600
C188        C  0.30123373  0.04287429  0.36749093    -0.22600
C189        C  0.19459534  0.04908854  0.63066847    -0.22600
C190        C  0.17158519  0.04835047  0.59259395    -0.22600
C191        C  0.32787994  0.06486744  0.49769853    -0.18000
C192        C  0.24831199  0.06979830  0.63273154    -0.18000
C193        C  0.16769983  0.06838671  0.49874036    -0.18000
C194        C  0.24766194  0.06349771  0.36349037    -0.18000
H195        H  0.34687262  0.10060703  0.59022710     0.14900
H196        H  0.30368792  0.10217794  0.66393577     0.14900
H197        H  0.19348996  0.09554308  0.32678707     0.14900
H198        H  0.15047093  0.09983954  0.39994822     0.14900
H199        H  0.34731736  0.03413438  0.40018613     0.13200
H200        H  0.30369513  0.03499509  0.32690487     0.13200
H201        H  0.19249637  0.04142417  0.67157043     0.13200
H202        H  0.14855588  0.03911832  0.59876010     0.13200
H203        H  0.26807758  0.05063518  0.53312527     0.26500
H204        H  0.22678803  0.04995668  0.46584418     0.26500
N205        N  0.07240902  0.20772070  0.94341474    -0.36300
N206        N  0.07332511  0.20848710  0.05778997    -0.56900
N207        N  0.07585183  0.27646914  0.05473450    -0.36300
N208        N  0.07204141  0.27570689  0.94083297    -0.56900
C209        C  0.06373648  0.17827662  0.95538797     0.27300
C210        C  0.06211723  0.21394202  0.89352040     0.27300
C211        C  0.06748426  0.27062521  0.10552241     0.27300
C212        C  0.06786465  0.30615505  0.04360755     0.27300
C213        C  0.08076740  0.17839505  0.04944283     0.35900
C214        C  0.08156004  0.21512979  0.10850377     0.35900
C215        C  0.07849301  0.26879013  0.88972647     0.35900
C216        C  0.08158798  0.30529859  0.94867083     0.35900
C217        C  0.04701467  0.16602661  0.91276232    -0.21600
C218        C  0.04632621  0.18844603  0.87355535    -0.21600
C219        C  0.05363950  0.29664497  0.12701626    -0.21600
C220        C  0.05343519  0.31896123  0.08771696    -0.21600
C221        C  0.09434076  0.16613375  0.09523191    -0.22600
C222        C  0.09434921  0.18929756  0.13280328    -0.22600
C223        C  0.09237417  0.29387645  0.86482091    -0.22600
C224        C  0.09472207  0.31692929  0.90232207    -0.22600
C225        C  0.07287437  0.16195212  0.00220401    -0.18000
C226        C  0.06914390  0.24112641  0.86440425    -0.18000
C227        C  0.07583758  0.32208070  0.99602850    -0.18000
C228        C  0.07505763  0.24346006  0.13401974    -0.18000
H229        H  0.03618207  0.14340882  0.90981171     0.14900
H230        H  0.03557185  0.18619945  0.83469527     0.14900
H231        H  0.04483049  0.29938575  0.16697009     0.14900
H232        H  0.04366408  0.34190189  0.09176174     0.14900
H233        H  0.10355708  0.14313476  0.10164354     0.13200
H234        H  0.10283557  0.18736657  0.17331806     0.13200
H235        H  0.09992474  0.29540775  0.82388188     0.13200
H236        H  0.10511758  0.33946344  0.89565097     0.13200
H237        H  0.08779064  0.22143515  0.96533136     0.26500
H238        H  0.08982933  0.26230201  0.03148419     0.26500
N239        N  0.07545196  0.27840130  0.44259953    -0.36300
N240        N  0.07162911  0.27793018  0.55661927    -0.56900
N241        N  0.07106961  0.21005310  0.55464654    -0.36300
N242        N  0.07229680  0.21041120  0.44097565    -0.56900
C243        C  0.06709213  0.30796982  0.45324097     0.27300
C244        C  0.06660213  0.27224768  0.39204401     0.27300
C245        C  0.06116142  0.21650141  0.60431326     0.27300
C246        C  0.06231586  0.18056976  0.54332986     0.27300
C247        C  0.08139930  0.30739992  0.54814987     0.35900
C248        C  0.07844140  0.27107532  0.60785350     0.35900
C249        C  0.08090858  0.21692227  0.39056839     0.35900
C250        C  0.07974260  0.18037273  0.45009629     0.35900
C251        C  0.05191830  0.32039726  0.40911997    -0.21600
C252        C  0.05199717  0.29791950  0.37024516    -0.21600
C253        C  0.04531039  0.19115639  0.62471306    -0.21600
C254        C  0.04574665  0.16852639  0.58602190    -0.21600
C255        C  0.09504781  0.31902913  0.59425883    -0.22600
C256        C  0.09280323  0.29608978  0.63222918    -0.22600
C257        C  0.09389827  0.19107201  0.36721525    -0.22600
C258        C  0.09370234  0.16803272  0.40514873    -0.22600
C259        C  0.07532309  0.32407738  0.50045764    -0.18000
C260        C  0.07417735  0.24500184  0.36423338    -0.18000
C261        C  0.07158984  0.16405390  0.49723911    -0.18000
C262        C  0.06968891  0.24323197  0.63337761    -0.18000
H263        H  0.04171975  0.34316948  0.40489077     0.14900
H264        H  0.04254611  0.30028105  0.33043017     0.14900
H265        H  0.03506609  0.18900337  0.66378790     0.14900
H266        H  0.03517700  0.14580894  0.58951197     0.14900
H267        H  0.10577770  0.34146083  0.60042342     0.13200
H268        H  0.10087073  0.29760216  0.67303372     0.13200
H269        H  0.10261560  0.18903027  0.32707370     0.13200
H270        H  0.10308484  0.14507078  0.39952487     0.13200
H271        H  0.08984118  0.26450049  0.46606464     0.26500
H272        H  0.08668696  0.22348073  0.53290026     0.26500
O273        O  0.38106667  0.40828412  0.04443888    -0.71500
O274        O  0.46896914  0.41112839  0.04174864    -0.71700
O275        O  0.42382356  0.45387916  0.04290301    -0.71600
O276        O  0.42591400  0.36566995  0.04343131    -0.71600
O277        O  0.42669556  0.36567434  0.95732307    -0.71500
O278        O  0.42126978  0.45374065  0.95647883    -0.71500
O279        O  0.46770442  0.41255174  0.95526040    -0.71500
O280        O  0.37969282  0.40672018  0.95866547    -0.71700
V281        V  0.42494377  0.40976622  0.04145164     1.35200
V282        V  0.42378747  0.40968331  0.95854515     1.35200
C283        C  0.36512828  0.40602922  0.00229651     0.77800
C284        C  0.48327759  0.41255582  0.99804735     0.77800
C285        C  0.42230552  0.46880941  0.99957959     0.77700
C286        C  0.42688440  0.35047025  0.00049844     0.77700
O287        O  0.42471444  0.36903927  0.45540232    -0.71500
O288        O  0.42310276  0.45735634  0.45564138    -0.71700
O289        O  0.46802840  0.41426383  0.45556127    -0.71600
O290        O  0.38003296  0.41202205  0.45599824    -0.71600
O291        O  0.38055108  0.41021206  0.54177740    -0.71500
O292        O  0.46826981  0.41562683  0.54207857    -0.71500
O293        O  0.42210957  0.45704505  0.54211992    -0.71500
O294        O  0.42726796  0.36892276  0.54145136    -0.71700
V295        V  0.42400666  0.41320485  0.45728215     1.35200
V296        V  0.42447009  0.41297602  0.54020578     1.35200
C297        C  0.42653856  0.35375704  0.49837175     0.77800
C298        C  0.42228763  0.47220590  0.49893300     0.77800
C299        C  0.48304997  0.41548826  0.49889779     0.77700
C300        C  0.36505820  0.40955227  0.49890402     0.77700
O301        O  0.37838613  0.05960106  0.95633776    -0.71500
O302        O  0.46648208  0.06427803  0.95522290    -0.71700
O303        O  0.42415724  0.01781429  0.95601192    -0.71600
O304        O  0.42040643  0.10597277  0.95543815    -0.71600
O305        O  0.42586970  0.10607775  0.04112013    -0.71500
O306        O  0.42087108  0.01799879  0.04231815    -0.71500
O307        O  0.46711571  0.06037551  0.04150774    -0.71500
O308        O  0.37913751  0.06450324  0.04207557    -0.71700
V309        V  0.42240649  0.06189281  0.95730313     1.35200
V310        V  0.42314949  0.06212775  0.04017235     1.35200
C311        C  0.36356879  0.06215655  0.99939456     0.77800
C312        C  0.48176318  0.06318296  0.99834863     0.77800
C313        C  0.42231497  0.00289591  0.99929617     0.77700
C314        C  0.42368093  0.12122252  0.99809453     0.77700
O315        O  0.41896818  0.10906095  0.54358668    -0.71500
O316        O  0.42380428  0.02103279  0.54251583    -0.71700
O317        O  0.46554474  0.06781022  0.54419248    -0.71600
O318        O  0.37750922  0.06223738  0.54166941    -0.71600
O319        O  0.37796822  0.06789110  0.45601793    -0.71500
O320        O  0.46584852  0.06416755  0.45790291    -0.71500
O321        O  0.41998412  0.02159713  0.45619875    -0.71500
O322        O  0.42436621  0.10976118  0.45797346    -0.71700
V323        V  0.42147924  0.06505202  0.54144379     1.35200
V324        V  0.42195551  0.06575879  0.45858579     1.35200
C325        C  0.42210510  0.12458942  0.50113758     0.77800
C326        C  0.42192625  0.00630088  0.49917353     0.77800
C327        C  0.48065004  0.06662987  0.50124079     0.77700
C328        C  0.36255940  0.06497698  0.49842632     0.77700
O329        O  0.11901337  0.06758490  0.04171400    -0.71500
O330        O  0.03077247  0.06577257  0.04188963    -0.71700
O331        O  0.07548859  0.02319150  0.04053013    -0.71600
O332        O  0.07373675  0.11121768  0.04367438    -0.71600
O333        O  0.07414002  0.11251365  0.95763936    -0.71500
O334        O  0.07526389  0.02434960  0.95399475    -0.71500
O335        O  0.03055690  0.06724322  0.95540020    -0.71500
O336        O  0.11855567  0.06950394  0.95572600    -0.71700
V337        V  0.07481575  0.06710327  0.04031471     1.35200
V338        V  0.07461046  0.06841413  0.95737104     1.35200
C339        C  0.13402621  0.06833166  0.99853589     0.77800
C340        C  0.01572051  0.06547271  0.99852801     0.77800
C341        C  0.07531393  0.00885031  0.99680625     0.77700
C342        C  0.07361605  0.12711130  0.00125901     0.77700
O343        O  0.07227106  0.11364092  0.45585169    -0.71500
O344        O  0.07345455  0.02569494  0.45735236    -0.71700
O345        O  0.02912189  0.06880565  0.45761054    -0.71600
O346        O  0.11723588  0.06959978  0.45609965    -0.71600
O347        O  0.11802971  0.07137588  0.54205996    -0.71500
O348        O  0.02994110  0.06903748  0.54413535    -0.71500
O349        O  0.07492032  0.02607522  0.54386999    -0.71500
O350        O  0.07324992  0.11440525  0.54192174    -0.71700
V351        V  0.07309627  0.06959119  0.45841812     1.35200
V352        V  0.07400191  0.07022721  0.54137010     1.35200
C353        C  0.07236286  0.12925289  0.49839244     0.77800
C354        C  0.07433945  0.01094749  0.50077014     0.77800
C355        C  0.01459151  0.06823325  0.50112910     0.77700
C356        C  0.13288321  0.07000603  0.49890940     0.77700
O357        O  0.07920996  0.37195385  0.03861343    -0.71500
O358        O  0.07442128  0.45981857  0.03929397    -0.71700
O359        O  0.03272032  0.41326812  0.03998176    -0.71600
O360        O  0.12050430  0.41884393  0.03810550    -0.71600
O361        O  0.11981975  0.41676008  0.95227248    -0.71500
O362        O  0.03163365  0.41598657  0.95357038    -0.71500
O363        O  0.07584481  0.46025269  0.95279129    -0.71500
O364        O  0.07518385  0.37211407  0.95275730    -0.71700
V365        V  0.07665799  0.41591907  0.03734541     1.35200
V366        V  0.07570159  0.41620513  0.95443340     1.35200
C367        C  0.07695846  0.35682056  0.99570299     0.77800
C368        C  0.07514722  0.47496153  0.99617593     0.77800
C369        C  0.01722661  0.41404406  0.99712755     0.77700
C370        C  0.13532963  0.41981852  0.99491282     0.77700
O371        O  0.11952795  0.42050997  0.45762325    -0.71500
O372        O  0.03186089  0.41598983  0.45632061    -0.71700
O373        O  0.07382573  0.46217589  0.45736989    -0.71600
O374        O  0.07783069  0.37407445  0.45724904    -0.71600
O375        O  0.07512678  0.37397163  0.54319603    -0.71500
O376        O  0.07592442  0.46198088  0.54386243    -0.71500
O377        O  0.03174816  0.41793723  0.54280197    -0.71500
O378        O  0.11986115  0.41830493  0.54340951    -0.71700
V379        V  0.07575287  0.41814686  0.45877562     1.35200
V380        V  0.07572703  0.41798311  0.54170154     1.35200
C381        C  0.13489242  0.42117678  0.50051865     0.77800
C382        C  0.01689765  0.41656229  0.49932520     0.77800
C383        C  0.07469436  0.47701901  0.50072024     0.77700
C384        C  0.07627281  0.35881309  0.50028151     0.77700
C385        C  0.04806003  0.25999145  0.72017471    -0.26000
C386        C  0.06962050  0.24190170  0.69264787    -0.14100
C387        C  0.09039690  0.22285705  0.72187052     0.36500
C388        C  0.08880103  0.22228952  0.77756851    -0.25500
C389        C  0.06736002  0.24051988  0.80512561    -0.14700
C390        C  0.04645712  0.25941870  0.77587800     0.37600
N391        N  0.02308030  0.27788388  0.80104454    -0.89000
H392        H  0.03226258  0.27467585  0.69795772     0.18700
H393        H  0.10517977  0.20817948  0.79974935     0.18700
N394        N  0.11422648  0.20486773  0.69687196    -0.88000
H395        H  0.02882890  0.30124142  0.79517216     0.36100
H396        H  0.02212705  0.27399339  0.84200402     0.41200
H397        H  0.11529577  0.20880029  0.65594945     0.40800
H398        H  0.10876943  0.18141604  0.70246292     0.35700
C399        C  0.04770708  0.23884786  0.22004074    -0.26000
C400        C  0.07545604  0.24467865  0.19308026    -0.14100
C401        C  0.10263033  0.25192663  0.22250775     0.36500
C402        C  0.10140980  0.25217265  0.27826781    -0.25500
C403        C  0.07378763  0.24548024  0.30519655    -0.14700
C404        C  0.04646108  0.23921499  0.27571692     0.37600
N405        N  0.01714564  0.23333188  0.30072860    -0.89000
H406        H  0.02677648  0.23428711  0.19732359     0.18700
H407        H  0.12225309  0.25745341  0.30087372     0.18700
N408        N  0.13160961  0.25939851  0.19741771    -0.88000
H409        H  0.00247586  0.25170167  0.29049688     0.36100
H410        H  0.01882360  0.23325314  0.34216625     0.41200
H411        H  0.12980127  0.25903060  0.15598730     0.40800
H412        H  0.14750138  0.24216198  0.20806662     0.35700
C413        C  0.23172780  0.09141055  0.77706037    -0.26000
C414        C  0.24953743  0.06927417  0.80457101    -0.14100
C415        C  0.26776290  0.04813656  0.77517230     0.36500
C416        C  0.26724509  0.04938311  0.71947883    -0.25500
C417        C  0.24902753  0.07112391  0.69198954    -0.14700
C418        C  0.23140271  0.09281417  0.72127693     0.37600
N419        N  0.21362212  0.11699103  0.69612304    -0.89000
H420        H  0.21814630  0.10799959  0.79928598     0.18700
H421        H  0.28075477  0.03270653  0.69728846     0.18700
N422        N  0.28628890  0.02448951  0.80004703    -0.88000
H423        H  0.19018304  0.11222655  0.70284612     0.36100
H424        H  0.21682336  0.11760144  0.65501586     0.41200
H425        H  0.28301939  0.02330998  0.84106986     0.40800
H426        H  0.30957853  0.03003572  0.79353469     0.35700
C427        C  0.26636338  0.08267457  0.21909715    -0.26000
C428        C  0.24904562  0.05989525  0.19228533    -0.14100
C429        C  0.23084957  0.03863258  0.22189218     0.36500
C430        C  0.23016770  0.04108023  0.27744689    -0.25500
C431        C  0.24771228  0.06369822  0.30430503    -0.14700
C432        C  0.26590111  0.08496715  0.27462340     0.37600
N433        N  0.28345049  0.10962405  0.29905052    -0.89000
H434        H  0.27996451  0.09924441  0.19645344     0.18700
H435        H  0.21652841  0.02453359  0.30008316     0.18700
N436        N  0.21364440  0.01378009  0.19735144    -0.88000
H437        H  0.30695838  0.10483812  0.29354740     0.36100
H438        H  0.27970570  0.11093840  0.33995106     0.41200
H439        H  0.21737106  0.01267315  0.15641082     0.40800
H440        H  0.19007319  0.51819053  0.20290798     0.35700
C441        C  0.44499143  0.25554415  0.77947818    -0.26000
C442        C  0.42283218  0.23742114  0.80590726    -0.14100
C443        C  0.40032605  0.22090953  0.77592984     0.36500
C444        C  0.40140326  0.22214208  0.72025950    -0.25500
C445        C  0.42412333  0.23966688  0.69380416    -0.14700
C446        C  0.44608836  0.25681572  0.72390063     0.37600
N447        N  0.47035957  0.27489404  0.69983510    -0.89000
H448        H  0.46192423  0.26848922  0.80249592     0.18700
H449        H  0.38425873  0.20937073  0.69729852     0.18700
N450        N  0.37567738  0.20346369  0.80028744    -0.88000
H451        H  0.46608653  0.29825593  0.70813372     0.36100
H452        H  0.47081874  0.27257787  0.65855631     0.41200
H453        H  0.37574376  0.20569221  0.84161998     0.40800
H454        H  0.37927293  0.18000957  0.79177844     0.35700
C455        C  0.44746646  0.21600152  0.28045261    -0.26000
C456        C  0.42874701  0.23793526  0.30605508    -0.14100
C457        C  0.40981610  0.25777142  0.27477197     0.36500
C458        C  0.41181319  0.25649736  0.21919511    -0.25500
C459        C  0.43148419  0.23545059  0.19354801    -0.14700
C460        C  0.44951562  0.21471478  0.22479922     0.37600
N461        N  0.46988638  0.19204658  0.20183613    -0.89000
H462        H  0.46127446  0.20009989  0.30418207     0.18700
H463        H  0.39730026  0.27180464  0.19555089     0.18700
N464        N  0.38777409  0.27885241  0.29754625    -0.88000
H465        H  0.49190721  0.19509604  0.21855267     0.36100
H466        H  0.47268984  0.19565332  0.16109485     0.41200
H467        H  0.38641851  0.27642214  0.33874735     0.40800
H468        H  0.36582973  0.27267328  0.28305602     0.35700
C469        C  0.23337477  0.38784091  0.77853145    -0.26000
C470        C  0.25224884  0.40936177  0.80539650    -0.14100
C471        C  0.27139794  0.42969185  0.77623889     0.36500
C472        C  0.27034623  0.42903634  0.72047666    -0.25500
C473        C  0.25113602  0.40783829  0.69351724    -0.14700
C474        C  0.23279762  0.38671971  0.72270897     0.37600
N475        N  0.21350568  0.36452704  0.69542749    -0.89000
H476        H  0.21899016  0.37204893  0.80132785     0.18700
H477        H  0.28452689  0.44507233  0.69778481     0.18700
N478        N  0.29187981  0.45073787  0.80357264    -0.88000
H479        H  0.20125840  0.35089687  0.72271620     0.36100
H480        H  0.22808615  0.34951814  0.67472594     0.41200
H481        H  0.27818155  0.46582705  0.82574440     0.40800
H482        H  0.30433339  0.46422860  0.77636542     0.35700
C483        C  0.26374957  0.44721860  0.22013093    -0.26000
C484        C  0.24812312  0.42309001  0.19363325    -0.14100
C485        C  0.23231610  0.40031314  0.22330402     0.36500
C486        C  0.23261086  0.40170914  0.27899993    -0.25500
C487        C  0.24863487  0.42550820  0.30557911    -0.14700
C488        C  0.26426725  0.44842623  0.27595229     0.37600
N489        N  0.28085870  0.47271296  0.30260007    -0.87400
H490        H  0.27590341  0.46483837  0.19739269     0.18700
H491        H  0.22069290  0.38391190  0.30169179     0.18700
N492        N  0.21642816  0.37545618  0.19681553    -0.88000
H493        H  0.27192270  0.49384801  0.28927516     0.36100
H494        H  0.30405482  0.47163439  0.29095258     0.41200
H495        H  0.19314747  0.37604936  0.20809975     0.40800
H496        H  0.22585649  0.35450160  0.21025537     0.35700
N497        N  0.21580173  0.91936561  0.05464409    -0.36300
N498        N  0.28392265  0.91329901  0.05846534    -0.56900
N499        N  0.28458632  0.91050736  0.94439757    -0.36300
N500        N  0.21663338  0.91688660  0.94050969    -0.56900
C501        C  0.22184906  0.92748799  0.10569802     0.27300
C502        C  0.18604405  0.92756516  0.04399387     0.27300
C503        C  0.31366293  0.90023742  0.95520996     0.27300
C504        C  0.27801822  0.90251963  0.89346914     0.27300
C505        C  0.27772492  0.91262948  0.11113666     0.35900
C506        C  0.31439356  0.90648955  0.05326704     0.35900
C507        C  0.18625920  0.92377459  0.94592165     0.35900
C508        C  0.22323128  0.92022110  0.88836310     0.35900
C509        C  0.19597158  0.94135200  0.12749528    -0.21600
C510        C  0.17352530  0.94164691  0.08863720    -0.21600
C511        C  0.32513671  0.88499344  0.91087583    -0.21600
C512        C  0.30278547  0.88664562  0.87195617    -0.21600
C513        C  0.30401684  0.90446408  0.13957056    -0.22600
C514        C  0.32712831  0.90047125  0.10324440    -0.22600
C515        C  0.17393881  0.93274883  0.89705481    -0.22600
C516        C  0.19735810  0.93054860  0.86075575    -0.22600
C517        C  0.24930765  0.92106380  0.13460675    -0.18000
C518        C  0.17006971  0.92322000  0.99484180    -0.18000
C519        C  0.25120604  0.91100250  0.86444320    -0.18000
C520        C  0.33021054  0.90436961  0.00380332    -0.18000
H521        H  0.19354289  0.95051632  0.16732400     0.14900
H522        H  0.15104769  0.95235120  0.09275884     0.14900
H523        H  0.34692147  0.87293395  0.90697350     0.14900
H524        H  0.30453919  0.87712010  0.83225936     0.14900
H525        H  0.30635839  0.90144076  0.18219821     0.13200
H526        H  0.34999457  0.89232542  0.11365565     0.13200
H527        H  0.15106249  0.94150479  0.88806718     0.13200
H528        H  0.19542071  0.93575031  0.81868613     0.13200
H529        H  0.23001739  0.90591269  0.03075635     0.26500
H530        H  0.27138168  0.92525029  0.96783170     0.26500
N531        N  0.28422007  0.91930191  0.44277569    -0.36300
N532        N  0.21595326  0.92405978  0.44324736    -0.56900
N533        N  0.21575020  0.91364811  0.55634187    -0.36300
N534        N  0.28398748  0.90878364  0.55590377    -0.56900
C535        C  0.27747925  0.91663920  0.39023094     0.27300
C536        C  0.31374230  0.90914968  0.44980341     0.27300
C537        C  0.18618590  0.92351363  0.54911766     0.27300
C538        C  0.22263141  0.91731044  0.60861150     0.27300
C539        C  0.22161891  0.93133362  0.39182612     0.35900
C540        C  0.18532545  0.92895667  0.45104941     0.35900
C541        C  0.31441009  0.90288821  0.54796183     0.35900
C542        C  0.27814360  0.90155291  0.60725437     0.35900
C543        C  0.30275198  0.90465920  0.36368261    -0.21600
C544        C  0.32543567  0.89970194  0.40105052    -0.21600
C545        C  0.17455243  0.93390895  0.59728427    -0.21600
C546        C  0.19745001  0.92991440  0.63466377    -0.21600
C547        C  0.19493390  0.94205893  0.36733819    -0.22600
C548        C  0.17204577  0.94078226  0.40465975    -0.22600
C549        C  0.32737937  0.89053773  0.59417069    -0.22600
C550        C  0.30449854  0.88985578  0.63153484    -0.22600
C551        C  0.24951669  0.92540633  0.36479595    -0.18000
C552        C  0.33018162  0.90748321  0.49903922    -0.18000
C553        C  0.25042169  0.90828051  0.63429407    -0.18000
C554        C  0.16967558  0.92406607  0.50007633    -0.18000
H555        H  0.30450833  0.89933570  0.32172316     0.14900
H556        H  0.34730489  0.88864212  0.39275928     0.14900
H557        H  0.15251238  0.94482132  0.60492343     0.14900
H558        H  0.19581171  0.93601557  0.67632087     0.14900
H559        H  0.19218898  0.94993318  0.32661360     0.13200
H560        H  0.14882261  0.94924037  0.39795008     0.13200
H561        H  0.35037070  0.88142238  0.60066995     0.13200
H562        H  0.30704881  0.88171674  0.67213476     0.13200
H563        H  0.27043236  0.93010875  0.47099957     0.26500
H564        H  0.22936297  0.90222143  0.52855979     0.26500
N565        N  0.42956003  0.70162702  0.05575532    -0.36300
N566        N  0.42531103  0.70210623  0.94186903    -0.56900
N567        N  0.42780061  0.76995219  0.94281048    -0.36300
N568        N  0.42955180  0.76945105  0.05671895    -0.56900
C569        C  0.41919597  0.67251857  0.04545623     0.27300
C570        C  0.42200826  0.70832944  0.10657935     0.27300
C571        C  0.41706742  0.76337178  0.89349382     0.27300
C572        C  0.41873724  0.79920269  0.95437483     0.27300
C573        C  0.43263074  0.67203071  0.95033211     0.35900
C574        C  0.43232163  0.70844685  0.89072404     0.35900
C575        C  0.43902178  0.76300236  0.10684969     0.35900
C576        C  0.43718333  0.79943396  0.04717683     0.35900
C577        C  0.40427737  0.66092345  0.09025572    -0.21600
C578        C  0.40634265  0.68344525  0.12894649    -0.21600
C579        C  0.40070761  0.78840548  0.87339995    -0.21600
C580        C  0.40139063  0.81093997  0.91210256    -0.21600
C581        C  0.44511600  0.65943539  0.90433966    -0.22600
C582        C  0.44460829  0.68252314  0.86638941    -0.22600
C583        C  0.45319215  0.78878007  0.12923899    -0.22600
C584        C  0.45225127  0.81184819  0.09130980    -0.22600
C585        C  0.42526629  0.65591137  0.99787561    -0.18000
C586        C  0.43161889  0.73529072  0.13411468    -0.18000
C587        C  0.42793815  0.81572867  0.00063710    -0.18000
C588        C  0.42413993  0.73629439  0.86491468    -0.18000
H589        H  0.39292902  0.63867408  0.09506735     0.14900
H590        H  0.39756053  0.68160814  0.16910456     0.14900
H591        H  0.38950984  0.79022155  0.83483409     0.14900
H592        H  0.39018991  0.83327346  0.90902136     0.14900
H593        H  0.45373654  0.63619845  0.89819258     0.13200
H594        H  0.45197175  0.68038071  0.82545116     0.13200
H595        H  0.46282686  0.79084090  0.16897463     0.13200
H596        H  0.46170758  0.83495201  0.09617751     0.13200
H597        H  0.44430198  0.71477929  0.03180915     0.26500
H598        H  0.44360242  0.75658692  0.96444075     0.26500
N599        N  0.42716851  0.77293483  0.55647555    -0.36300
N600        N  0.42430576  0.70517950  0.55776556    -0.56900
N601        N  0.42799549  0.70492683  0.44388573    -0.36300
N602        N  0.42869750  0.77270762  0.44263755    -0.56900
C603        C  0.41717232  0.76639553  0.60614759     0.27300
C604        C  0.41858640  0.80242631  0.54502250     0.27300
C605        C  0.41701428  0.67610483  0.45459068     0.27300
C606        C  0.41955838  0.71189999  0.39338420     0.27300
C607        C  0.43183011  0.71124016  0.60886435     0.35900
C608        C  0.43137475  0.67508471  0.54929597     0.35900
C609        C  0.43641523  0.80266905  0.45195130     0.35900
C610        C  0.43760175  0.76618491  0.39246786     0.35900
C611        C  0.40177574  0.79174784  0.62669196    -0.21600
C612        C  0.40223025  0.81438262  0.58785077    -0.21600
C613        C  0.40081344  0.66500034  0.41060453    -0.21600
C614        C  0.40266909  0.68754092  0.37179796    -0.21600
C615        C  0.44415086  0.68511295  0.63308880    -0.22600
C616        C  0.44415391  0.66218909  0.59515713    -0.22600
C617        C  0.45108925  0.81503525  0.40754227    -0.22600
C618        C  0.45164311  0.79191558  0.36973841    -0.22600
C619        C  0.42458520  0.73917390  0.63472106    -0.18000
C620        C  0.42749040  0.81896311  0.49846111    -0.18000
C621        C  0.42896663  0.73873294  0.36544717    -0.18000
C622        C  0.42357323  0.65923381  0.50180324    -0.18000
H623        H  0.39149463  0.79376643  0.66572183     0.14900
H624        H  0.39161346  0.83696542  0.59133946     0.14900
H625        H  0.38876401  0.64305523  0.40658090     0.14900
H626        H  0.39280103  0.68613739  0.33214790     0.14900
H627        H  0.45199932  0.68275720  0.67391457     0.13200
H628        H  0.45268910  0.63887518  0.60120417     0.13200
H629        H  0.46034186  0.83820189  0.40233545     0.13200
H630        H  0.46061131  0.79401582  0.32973708     0.13200
H631        H  0.44240902  0.75934027  0.53458361     0.26500
H632        H  0.44353314  0.71762304  0.46730031     0.26500
N633        N  0.21492074  0.56270556  0.05504882    -0.36300
N634        N  0.28290802  0.56186719  0.05594133    -0.56900
N635        N  0.28255711  0.56497312  0.94223379    -0.36300
N636        N  0.21465565  0.56877418  0.94112115    -0.56900
C637        C  0.22204470  0.56980380  0.10603860     0.27300
C638        C  0.18585274  0.57320577  0.04537351     0.27300
C639        C  0.31247155  0.57228408  0.95335404     0.27300
C640        C  0.27619471  0.57563563  0.89271085     0.27300
C641        C  0.27666746  0.55289316  0.10628248     0.35900
C642        C  0.31269317  0.55401350  0.04654969     0.35900
C643        C  0.18469997  0.56086845  0.94978819     0.35900
C644        C  0.22069118  0.56179982  0.88981149     0.35900
C645        C  0.19750582  0.58528287  0.12912180    -0.21600
C646        C  0.17476909  0.58778139  0.09068958    -0.21600
C647        C  0.32495769  0.58845519  0.91051161    -0.21600
C648        C  0.30212394  0.59023283  0.87203992    -0.21600
C649        C  0.30239060  0.53900113  0.12914753    -0.22600
C650        C  0.32517264  0.53937556  0.09111753    -0.22600
C651        C  0.17195831  0.54820472  0.90369850    -0.22600
C652        C  0.19468714  0.54915800  0.86562559    -0.22600
C653        C  0.24910172  0.56020050  0.13315597    -0.18000
C654        C  0.16882985  0.56743812  0.99785845    -0.18000
C655        C  0.24876970  0.56894258  0.86394458    -0.18000
C656        C  0.32886023  0.56253570  0.99969699    -0.18000
H657        H  0.19609121  0.59378257  0.16954186     0.14900
H658        H  0.15276893  0.59925633  0.09601797     0.14900
H659        H  0.34807264  0.59798958  0.90680434     0.14900
H660        H  0.30446630  0.60062127  0.83297411     0.14900
H661        H  0.30455842  0.52983334  0.16917062     0.13200
H662        H  0.34815969  0.52988071  0.09625676     0.13200
H663        H  0.14897614  0.53875540  0.89759231     0.13200
H664        H  0.19238499  0.54133065  0.82487615     0.13200
H665        H  0.22774200  0.54817774  0.03049754     0.26500
H666        H  0.26847665  0.54997347  0.96406971     0.26500
N667        N  0.28201884  0.56576939  0.55511832    -0.36300
N668        N  0.28157329  0.56397774  0.44140098    -0.56900
N669        N  0.21345251  0.56419440  0.44120016    -0.36300
N670        N  0.21406852  0.56888204  0.55516665    -0.56900
C671        C  0.31163291  0.57392146  0.54402395     0.27300
C672        C  0.27575425  0.57623715  0.60453105     0.27300
C673        C  0.22022753  0.57173694  0.39028541     0.27300
C674        C  0.18424178  0.57415943  0.45088021     0.27300
C675        C  0.31157585  0.55656905  0.45066120     0.35900
C676        C  0.27527417  0.55576885  0.39067152     0.35900
C677        C  0.22044028  0.56175412  0.60648571     0.35900
C678        C  0.18401462  0.56118291  0.54652391     0.35900
C679        C  0.32402741  0.59034923  0.58673504    -0.21600
C680        C  0.30143850  0.59148718  0.62515018    -0.21600
C681        C  0.19522517  0.58674587  0.36710448    -0.21600
C682        C  0.17263837  0.58863414  0.40543106    -0.21600
C683        C  0.32413440  0.54293809  0.40568720    -0.22600
C684        C  0.30123398  0.54287419  0.36749129    -0.22600
C685        C  0.19459510  0.54908650  0.63066913    -0.22600
C686        C  0.17158499  0.54834886  0.59259449    -0.22600
C687        C  0.32787996  0.56486595  0.49769968    -0.18000
C688        C  0.24831182  0.56979606  0.63273254    -0.18000
C689        C  0.16770005  0.56838591  0.49874135    -0.18000
C690        C  0.24766203  0.56349725  0.36349130    -0.18000
H691        H  0.34687229  0.60060531  0.59022876     0.14900
H692        H  0.30368753  0.60217581  0.66393716     0.14900
H693        H  0.19349052  0.59554381  0.32678900     0.14900
H694        H  0.15047154  0.59984010  0.39995047     0.14900
H695        H  0.34731760  0.53413411  0.40018629     0.13200
H696        H  0.30369555  0.53499569  0.32690487     0.13200
H697        H  0.19249595  0.54142215  0.67157107     0.13200
H698        H  0.14855551  0.53911710  0.59876046     0.13200
H699        H  0.26807768  0.55063295  0.53312628     0.26500
H700        H  0.22678797  0.54995543  0.46584463     0.26500
N701        N  0.07240938  0.70772067  0.94341272    -0.36300
N702        N  0.07332359  0.70848699  0.05778807    -0.56900
N703        N  0.07584946  0.77646900  0.05473265    -0.36300
N704        N  0.07204088  0.77570694  0.94083104    -0.56900
C705        C  0.06373697  0.67827651  0.95538553     0.27300
C706        C  0.06211814  0.71394192  0.89351805     0.27300
C707        C  0.06748167  0.77062509  0.10552050     0.27300
C708        C  0.06786259  0.80615501  0.04360566     0.27300
C709        C  0.08076671  0.67839514  0.04944091     0.35900
C710        C  0.08155802  0.71512978  0.10850208     0.35900
C711        C  0.07849302  0.76879033  0.88972469     0.35900
C712        C  0.08158689  0.80529880  0.94866917     0.35900
C713        C  0.04701578  0.66602639  0.91275927    -0.21600
C714        C  0.04632762  0.68844581  0.87355233    -0.21600
C715        C  0.05363705  0.79664496  0.12701422    -0.21600
C716        C  0.05343303  0.81896124  0.08771493    -0.21600
C717        C  0.09434003  0.66613408  0.09523018    -0.22600
C718        C  0.09434762  0.68929779  0.13280168    -0.22600
C719        C  0.09237380  0.79387693  0.86481939    -0.22600
C720        C  0.09472108  0.81692976  0.90232065    -0.22600
C721        C  0.07287447  0.66195209  0.00220184    -0.18000
C722        C  0.06914482  0.74112639  0.86440230    -0.18000
C723        C  0.07583606  0.82208074  0.99602690    -0.18000
C724        C  0.07505509  0.74345997  0.13401799    -0.18000
H725        H  0.03618334  0.64340854  0.90980820     0.14900
H726        H  0.03557375  0.68619918  0.83469187     0.14900
H727        H  0.04482804  0.79938589  0.16696801     0.14900
H728        H  0.04366212  0.84190199  0.09175972     0.14900
H729        H  0.10355696  0.64313532  0.10164181     0.13200
H730        H  0.10283382  0.68736688  0.17331657     0.13200
H731        H  0.09992463  0.79540839  0.82388051     0.13200
H732        H  0.10511631  0.83946406  0.89564974     0.13200
H733        H  0.08779057  0.72143527  0.96532995     0.26500
H734        H  0.08982707  0.76230186  0.03148261     0.26500
N735        N  0.07545208  0.77840103  0.44259806    -0.36300
N736        N  0.07162906  0.77793020  0.55661784    -0.56900
N737        N  0.07107009  0.71005313  0.55464567    -0.36300
N738        N  0.07229745  0.71041089  0.44097485    -0.56900
C739        C  0.06709208  0.80796956  0.45323924     0.27300
C740        C  0.06660253  0.77224725  0.39204241     0.27300
C741        C  0.06116198  0.71650153  0.60431235     0.27300
C742        C  0.06231634  0.68056977  0.54332934     0.27300
C743        C  0.08139909  0.80739994  0.54814821     0.35900
C744        C  0.07844168  0.77107547  0.60785196     0.35900
C745        C  0.08090903  0.71692174  0.39056738     0.35900
C746        C  0.07974312  0.68037240  0.45009578     0.35900
C747        C  0.05191849  0.82039686  0.40911788    -0.21600
C748        C  0.05199771  0.79791906  0.37024320    -0.21600
C749        C  0.04531101  0.69115659  0.62471252    -0.21600
C750        C  0.04574717  0.66852652  0.58602152    -0.21600
C751        C  0.09504782  0.81902928  0.59425690    -0.22600
C752        C  0.09280352  0.79609000  0.63222737    -0.22600
C753        C  0.09389846  0.69107128  0.36721440    -0.22600
C754        C  0.09370261  0.66803216  0.40514819    -0.22600
C755        C  0.07532263  0.82407728  0.50045603    -0.18000
C756        C  0.07417769  0.74500123  0.36423205    -0.18000
C757        C  0.07159039  0.66405377  0.49723887    -0.18000
C758        C  0.06968947  0.74323216  0.63337627    -0.18000
H759        H  0.04171985  0.84316901  0.40488832     0.14900
H760        H  0.04254690  0.80028062  0.33042805     0.14900
H761        H  0.03506680  0.68900369  0.66378745     0.14900
H762        H  0.03517749  0.64580909  0.58951184     0.14900
H763        H  0.10577771  0.84146100  0.60042120     0.13200
H764        H  0.10087123  0.79760243  0.67303178     0.13200
H765        H  0.10261554  0.68902928  0.32707274     0.13200
H766        H  0.10308494  0.64507014  0.39952442     0.13200
H767        H  0.08984116  0.76450028  0.46606351     0.26500
H768        H  0.08668742  0.72348070  0.53289927     0.26500
O769        O  0.38106599  0.90828426  0.04443979    -0.71500
O770        O  0.46896849  0.91112779  0.04174947    -0.71700
O771        O  0.42382329  0.95387897  0.04290458    -0.71600
O772        O  0.42591302  0.86566968  0.04343111    -0.71600
O773        O  0.42669511  0.86567472  0.95732289    -0.71500
O774        O  0.42126899  0.95374086  0.95648042    -0.71500
O775        O  0.46770376  0.91255218  0.95526127    -0.71500
O776        O  0.37969214  0.90672036  0.95866637    -0.71700
V777        V  0.42494312  0.90976599  0.04145244     1.35200
V778        V  0.42378681  0.90968360  0.95854596     1.35200
C779        C  0.36512758  0.90602946  0.00229743     0.77800
C780        C  0.48327694  0.91255569  0.99804823     0.77800
C781        C  0.42230505  0.96880941  0.99958135     0.77700
C782        C  0.42688381  0.85047032  0.00049788     0.77700
O783        O  0.42471348  0.86903916  0.45540054    -0.71500
O784        O  0.42310184  0.95735624  0.45563958    -0.71700
O785        O  0.46802757  0.91426369  0.45555907    -0.71600
O786        O  0.38003198  0.91202193  0.45599735    -0.71600
O787        O  0.38055052  0.91021149  0.54177646    -0.71500
O788        O  0.46826913  0.91562705  0.54207634    -0.71500
O789        O  0.42210858  0.95704492  0.54211811    -0.71500
O790        O  0.42726770  0.86892264  0.54144956    -0.71700
V791        V  0.42400573  0.91320473  0.45728045     1.35200
V792        V  0.42446948  0.91297588  0.54020407     1.35200
C793        C  0.42653796  0.85375694  0.49836992     0.77800
C794        C  0.42228666  0.97220580  0.49893119     0.77800
C795        C  0.48304924  0.91548832  0.49889553     0.77700
C796        C  0.36505742  0.90955184  0.49890335     0.77700
O797        O  0.37838619  0.55960127  0.95633731    -0.71500
O798        O  0.46648222  0.56427820  0.95522047    -0.71700
O799        O  0.42415733  0.51781439  0.95601008    -0.71600
O800        O  0.42040649  0.60597292  0.95543695    -0.71600
O801        O  0.42587046  0.60607779  0.04111879    -0.71500
O802        O  0.42087163  0.51799881  0.04231635    -0.71500
O803        O  0.46711630  0.56037543  0.04150528    -0.71500
O804        O  0.37913821  0.56450344  0.04207510    -0.71700
V805        V  0.42240658  0.56189295  0.95730162     1.35200
V806        V  0.42315014  0.56212778  0.04017082     1.35200
C807        C  0.36356917  0.56215694  0.99939443     0.77800
C808        C  0.48176354  0.56318303  0.99834599     0.77800
C809        C  0.42231531  0.50289595  0.99929430     0.77700
C810        C  0.42368131  0.62122262  0.99809331     0.77700
O811        O  0.41896753  0.60906113  0.54358688    -0.71500
O812        O  0.42380500  0.52103302  0.54251739    -0.71700
O813        O  0.46554472  0.56781110  0.54419350    -0.71600
O814        O  0.37750932  0.56223681  0.54167044    -0.71600
O815        O  0.37796820  0.56789036  0.45601894    -0.71500
O816        O  0.46584858  0.56416790  0.45790400    -0.71500
O817        O  0.41998467  0.52159700  0.45620032    -0.71500
O818        O  0.42436575  0.60976100  0.45797371    -0.71700
V819        V  0.42147927  0.56505222  0.54144476     1.35200
V820        V  0.42195553  0.56575863  0.45858677     1.35200
C821        C  0.42210449  0.62458943  0.50113758     0.77800
C822        C  0.42192704  0.50630094  0.49917523     0.77800
C823        C  0.48065005  0.56663059  0.50124187     0.77700
C824        C  0.36255944  0.56497605  0.49842736     0.77700
O825        O  0.11901356  0.56758458  0.04171280    -0.71500
O826        O  0.03077285  0.56577289  0.04188785    -0.71700
O827        O  0.07548862  0.52319156  0.04052883    -0.71600
O828        O  0.07373733  0.61121772  0.04367246    -0.71600
O829        O  0.07414030  0.61251349  0.95763745    -0.71500
O830        O  0.07526464  0.52434942  0.95399343    -0.71500
O831        O  0.03055736  0.56724281  0.95539838    -0.71500
O832        O  0.11855623  0.56950397  0.95572483    -0.71700
V833        V  0.07481605  0.56710330  0.04031312     1.35200
V834        V  0.07461097  0.56841396  0.95736944     1.35200
C835        C  0.13402657  0.56833146  0.99853495     0.77800
C836        C  0.01572094  0.56547262  0.99852624     0.77800
C837        C  0.07531437  0.50885026  0.99680507     0.77700
C838        C  0.07361642  0.62711125  0.00125700     0.77700
O839        O  0.07227163  0.61364064  0.45585234    -0.71500
O840        O  0.07345462  0.52569481  0.45735402    -0.71700
O841        O  0.02912222  0.56880571  0.45761222    -0.71600
O842        O  0.11723617  0.56959929  0.45610067    -0.71600
O843        O  0.11803014  0.57137596  0.54206098    -0.71500
O844        O  0.02994162  0.56903760  0.54413703    -0.71500
O845        O  0.07492088  0.52607529  0.54387164    -0.71500
O846        O  0.07325044  0.61440536  0.54192238    -0.71700
V847        V  0.07309658  0.56959099  0.45841939     1.35200
V848        V  0.07400240  0.57022730  0.54137137     1.35200
C849        C  0.07236344  0.62925279  0.49839283     0.77800
C850        C  0.07433981  0.51094748  0.50077185     0.77800
C851        C  0.01459194  0.56823337  0.50113089     0.77700
C852        C  0.13288353  0.57000568  0.49891039     0.77700
O853        O  0.07920867  0.87195364  0.03861255    -0.71500
O854        O  0.07442071  0.95981839  0.03929453    -0.71700
O855        O  0.03271942  0.91326820  0.03998143    -0.71600
O856        O  0.12050334  0.91884336  0.03810554    -0.71600
O857        O  0.11981891  0.91676039  0.95227245    -0.71500
O858        O  0.03163279  0.91598676  0.95357005    -0.71500
O859        O  0.07584394  0.96025295  0.95279184    -0.71500
O860        O  0.07518297  0.87211434  0.95275638    -0.71700
V861        V  0.07665706  0.91591887  0.03734524     1.35200
V862        V  0.07570073  0.91620539  0.95443321     1.35200
C863        C  0.07695724  0.85682059  0.99570186     0.77800
C864        C  0.07514660  0.97496157  0.99617671     0.77800
C865        C  0.01722574  0.91404415  0.99712720     0.77700
C866        C  0.13532873  0.91981836  0.99491295     0.77700
O867        O  0.11952744  0.92050911  0.45762307    -0.71500
O868        O  0.03186024  0.91599042  0.45631837    -0.71700
O869        O  0.07382591  0.96217584  0.45736829    -0.71600
O870        O  0.07782951  0.87407439  0.45724761    -0.71600
O871        O  0.07512609  0.87397154  0.54319464    -0.71500
O872        O  0.07592295  0.96198088  0.54386091    -0.71500
O873        O  0.03174716  0.91793682  0.54279980    -0.71500
O874        O  0.11986001  0.91830530  0.54340942    -0.71700
V875        V  0.07575232  0.91814678  0.45877427     1.35200
V876        V  0.07572595  0.91798308  0.54170022     1.35200
C877        C  0.13489159  0.92117648  0.50051883     0.77800
C878        C  0.01689683  0.91656240  0.49932285     0.77800
C879        C  0.07469382  0.97701900  0.50071860     0.77700
C880        C  0.07627196  0.85881301  0.50028005     0.77700
C881        C  0.04805951  0.75998991  0.72017316    -0.26000
C882        C  0.06962142  0.74190196  0.69264632    -0.14100
C883        C  0.09039957  0.72285914  0.72186870     0.36500
C884        C  0.08880392  0.72229152  0.77756670    -0.25500
C885        C  0.06736128  0.74051994  0.80512379    -0.14700
C886        C  0.04645675  0.75941700  0.77587640     0.37600
N887        N  0.02307850  0.77788023  0.80104315    -0.89000
H888        H  0.03226086  0.77467301  0.69795619     0.18700
H889        H  0.10518389  0.70818289  0.79974751     0.18700
N890        N  0.11423051  0.70487178  0.69686980    -0.88000
H891        H  0.02882501  0.80123823  0.79517033     0.36100
H892        H  0.02212585  0.77398988  0.84200272     0.41200
H893        H  0.11529874  0.70880390  0.65594705     0.40800
H894        H  0.10877573  0.68141964  0.70246177     0.35700
C895        C  0.04770481  0.73885120  0.22004006    -0.26000
C896        C  0.07545413  0.74467871  0.19307858    -0.14100
C897        C  0.10262975  0.75192282  0.22250527     0.36500
C898        C  0.10141004  0.75216846  0.27826539    -0.25500
C899        C  0.07378742  0.74547935  0.30519513    -0.14700
C900        C  0.04645971  0.73921771  0.27571636     0.37600
N901        N  0.01714403  0.73333745  0.30072907    -0.89000
H902        H  0.02677330  0.73429330  0.19732367     0.18700
H903        H  0.12225429  0.75744645  0.30087058     0.18700
N904        N  0.13160962  0.75939123  0.19741428    -0.88000
H905        H  0.00247603  0.75170897  0.29049900     0.36100
H906        H  0.01882260  0.73325757  0.34216666     0.41200
H907        H  0.12980059  0.75902445  0.15598392     0.40800
H908        H  0.14749920  0.74215233  0.20806149     0.35700
C909        C  0.23172810  0.59141031  0.77706051    -0.26000
C910        C  0.24953801  0.56927442  0.80457176    -0.14100
C911        C  0.26776320  0.54813626  0.77517377     0.36500
C912        C  0.26724496  0.54938189  0.71948031    -0.25500
C913        C  0.24902718  0.57112223  0.69199040    -0.14700
C914        C  0.23140249  0.59281295  0.72127706     0.37600
N915        N  0.21362152  0.61698926  0.69612238    -0.89000
H916        H  0.21814668  0.60799965  0.79928564     0.18700
H917        H  0.28075454  0.53270500  0.69729046     0.18700
N918        N  0.28628925  0.52448950  0.80004926    -0.88000
H919        H  0.19018254  0.61222476  0.70284635     0.36100
H920        H  0.21682236  0.61759900  0.65501508     0.41200
H921        H  0.28301994  0.52331052  0.84107219     0.40800
H922        H  0.30957885  0.53003555  0.79353634     0.35700
C923        C  0.26636280  0.58267471  0.21909802    -0.26000
C924        C  0.24904566  0.55989494  0.19228613    -0.14100
C925        C  0.23085014  0.53863182  0.22189302     0.36500
C926        C  0.23016822  0.54107941  0.27744777    -0.25500
C927        C  0.24771223  0.56369784  0.30430594    -0.14700
C928        C  0.26590049  0.58496725  0.27462431     0.37600
N929        N  0.28344931  0.60962452  0.29905147    -0.89000
H930        H  0.27996350  0.59924492  0.19645434     0.18700
H931        H  0.21652938  0.52453241  0.30008406     0.18700
N932        N  0.21364555  0.51377893  0.19735231    -0.88000
H933        H  0.30695731  0.60483922  0.29354809     0.36100
H934        H  0.27970464  0.61093858  0.33995208     0.41200
H935        H  0.21737215  0.51267220  0.15641166     0.40800
H936        H  0.19007215  0.01819233  0.20290694     0.35700
C937        C  0.44499300  0.75554198  0.77947591    -0.26000
C938        C  0.42283236  0.73742104  0.80590566    -0.14100
C939        C  0.40032422  0.72091169  0.77592902     0.36500
C940        C  0.40140047  0.72214469  0.72025862    -0.25500
C941        C  0.42412170  0.73966759  0.69380262    -0.14700
C942        C  0.44608901  0.75681395  0.72389830     0.37600
N943        N  0.47036158  0.77489001  0.69983183    -0.89000
H944        H  0.46192751  0.76848514  0.80249311     0.18700
H945        H  0.38425449  0.70937500  0.69729814     0.18700
N946        N  0.37567462  0.70346760  0.80028750    -0.88000
H947        H  0.46609149  0.79825221  0.70813239     0.36100
H948        H  0.47081912  0.77257483  0.65855279     0.41200
H949        H  0.37574239  0.70569520  0.84162021     0.40800
H950        H  0.37926782  0.68001333  0.79177681     0.35700
C951        C  0.44746756  0.71600182  0.28045106    -0.26000
C952        C  0.42874778  0.73793516  0.30605381    -0.14100
C953        C  0.40981669  0.75777129  0.27477093     0.36500
C954        C  0.41181371  0.75649744  0.21919403    -0.25500
C955        C  0.43148485  0.73545090  0.19354668    -0.14700
C956        C  0.44951668  0.71471532  0.22479763     0.37600
N957        N  0.46988778  0.69204756  0.20183417    -0.89000
H958        H  0.46127582  0.70010032  0.30418031     0.18700
H959        H  0.39730061  0.77180464  0.19554998     0.18700
N960        N  0.38777457  0.77885210  0.29754545    -0.88000
H961        H  0.49190855  0.69509724  0.21855085     0.36100
H962        H  0.47269124  0.69565463  0.16109296     0.41200
H963        H  0.38641902  0.77642165  0.33874651     0.40800
H964        H  0.36583023  0.77267293  0.28305519     0.35700
C965        C  0.23337399  0.88784201  0.77853261    -0.26000
C966        C  0.25224816  0.90936295  0.80539728    -0.14100
C967        C  0.27139752  0.92969259  0.77623929     0.36500
C968        C  0.27034581  0.92903674  0.72047706    -0.25500
C969        C  0.25113551  0.90783861  0.69351799    -0.14700
C970        C  0.23279699  0.88672032  0.72271016     0.37600
N971        N  0.21350512  0.86452739  0.69542915    -0.89000
H972        H  0.21898927  0.87205027  0.80132931     0.18700
H973        H  0.28452660  0.94507248  0.69778494     0.18700
N974        N  0.29187975  0.95073840  0.80357269    -0.88000
H975        H  0.20125777  0.85089748  0.72271813     0.36100
H976        H  0.22808567  0.84951830  0.67472815     0.41200
H977        H  0.27818177  0.96582779  0.82574452     0.40800
H978        H  0.30433344  0.96422888  0.77636525     0.35700
C979        C  0.26374784  0.94721748  0.22013125    -0.26000
C980        C  0.24812198  0.92308831  0.19363412    -0.14100
C981        C  0.23231543  0.90031132  0.22330535     0.36500
C982        C  0.23261004  0.90170781  0.27900120    -0.25500
C983        C  0.24863354  0.92550742  0.30557980    -0.14700
C984        C  0.26426546  0.94842556  0.27595255     0.37600
N985        N  0.28085650  0.97271275  0.30259983    -0.87400
H986        H  0.27590129  0.96483736  0.19739263     0.18700
H987        H  0.22069248  0.88391048  0.30169348     0.18700
N988        N  0.21642812  0.87545375  0.19681740    -0.88000
H989        H  0.27192018  0.99384758  0.28927452     0.36100
H990        H  0.30405264  0.97163449  0.29095239     0.41200
H991        H  0.19314740  0.87604648  0.20810151     0.40800
H992        H  0.22585692  0.85449952  0.21025784     0.35700
N993        N  0.71580298  0.41936672  0.05464312    -0.36300
N994        N  0.78392386  0.41329963  0.05846409    -0.56900
N995        N  0.78458719  0.41050677  0.94439624    -0.36300
N996        N  0.71663421  0.41688620  0.94050878    -0.56900
C997        C  0.72185053  0.42748975  0.10569671     0.27300
C998        C  0.68604520  0.42756600  0.04399297     0.27300
C999        C  0.81366393  0.40023711  0.95520849     0.27300
C1000       C  0.77801915  0.40251927  0.89346769     0.27300
C1001       C  0.77772627  0.41263076  0.11113549     0.35900
C1002       C  0.81439459  0.40648946  0.05326572     0.35900
C1003       C  0.68626000  0.42377410  0.94592085     0.35900
C1004       C  0.72323192  0.42022018  0.88836198     0.35900
C1005       C  0.69597308  0.44135393  0.12749375    -0.21600
C1006       C  0.67352660  0.44164825  0.08863594    -0.21600
C1007       C  0.82513787  0.38499356  0.91087400    -0.21600
C1008       C  0.80278661  0.38664574  0.87195438    -0.21600
C1009       C  0.80401809  0.40446510  0.13956941    -0.22600
C1010       C  0.82712934  0.40047134  0.10324316    -0.22600
C1011       C  0.67393941  0.43274772  0.89705383    -0.22600
C1012       C  0.69735857  0.43054720  0.86075460    -0.22600
C1013       C  0.74930917  0.42106572  0.13460554    -0.18000
C1014       C  0.67007065  0.42322013  0.99484122    -0.18000
C1015       C  0.75120676  0.41100180  0.86444200    -0.18000
C1016       C  0.83021151  0.40436919  0.00380197    -0.18000
H1017       H  0.69354446  0.45051857  0.16732226     0.14900
H1018       H  0.65104892  0.45235240  0.09275754     0.14900
H1019       H  0.84692275  0.37293432  0.90697136     0.14900
H1020       H  0.80454044  0.37712049  0.83225739     0.14900
H1021       H  0.80635972  0.40144216  0.18219713     0.13200
H1022       H  0.84999544  0.39232508  0.11365449     0.13200
H1023       H  0.65106303  0.44150353  0.88806615     0.13200
H1024       H  0.69542100  0.43574848  0.81868484     0.13200
H1025       H  0.73001855  0.40591350  0.03075572     0.26500
H1026       H  0.77138237  0.42524940  0.96783058     0.26500
N1027       N  0.78422107  0.41930387  0.44277512    -0.36300
N1028       N  0.71595416  0.42406177  0.44324639    -0.56900
N1029       N  0.71575085  0.41364847  0.55634057    -0.36300
N1030       N  0.78398806  0.40878422  0.55590296    -0.56900
C1031       C  0.77748030  0.41664150  0.39023025     0.27300
C1032       C  0.81374316  0.40915116  0.44980290     0.27300
C1033       C  0.68618656  0.42351398  0.54911647     0.27300
C1034       C  0.72263180  0.41731006  0.60861047     0.27300
C1035       C  0.72161989  0.43133597  0.39182529     0.35900
C1036       C  0.68532619  0.42895792  0.45104827     0.35900
C1037       C  0.81441068  0.40288880  0.54796119     0.35900
C1038       C  0.77814406  0.40155299  0.60725331     0.35900
C1039       C  0.80275292  0.40466122  0.36368198    -0.21600
C1040       C  0.82543648  0.39970348  0.40104996    -0.21600
C1041       C  0.67455287  0.43390856  0.59728342    -0.21600
C1042       C  0.69745024  0.42991343  0.63466304    -0.21600
C1043       C  0.69493472  0.44206092  0.36733734    -0.22600
C1044       C  0.67204641  0.44078344  0.40465864    -0.22600
C1045       C  0.82737979  0.39053787  0.59416984    -0.22600
C1046       C  0.80449890  0.38985568  0.63153377    -0.22600
C1047       C  0.74951783  0.42540896  0.36479513    -0.18000
C1048       C  0.83018235  0.40748404  0.49903883    -0.18000
C1049       C  0.75042207  0.40828017  0.63429294    -0.18000
C1050       C  0.66967628  0.42406674  0.50007512    -0.18000
H1051       H  0.80450927  0.39933775  0.32172252     0.14900
H1052       H  0.84730553  0.38864332  0.39275873     0.14900
H1053       H  0.65251282  0.44482083  0.60492288     0.14900
H1054       H  0.69581171  0.43601391  0.67632041     0.14900
H1055       H  0.69218977  0.44993526  0.32661281     0.13200
H1056       H  0.64882302  0.44924085  0.39794880     0.13200
H1057       H  0.85037104  0.38142228  0.60066908     0.13200
H1058       H  0.80704901  0.38171625  0.67213349     0.13200
H1059       H  0.77043341  0.43011067  0.47099913     0.26500
H1060       H  0.72936379  0.40222231  0.52855811     0.26500
N1061       N  0.92955892  0.20162653  0.05575579    -0.36300
N1062       N  0.92531008  0.20210571  0.94186963    -0.56900
N1063       N  0.92780067  0.26995170  0.94281106    -0.36300
N1064       N  0.92955182  0.26945059  0.05671934    -0.56900
C1065       C  0.91919458  0.17251818  0.04545669     0.27300
C1066       C  0.92200713  0.20832907  0.10657974     0.27300
C1067       C  0.91706716  0.26337127  0.89349460     0.27300
C1068       C  0.91873744  0.29920223  0.95437547     0.27300
C1069       C  0.93262970  0.17203018  0.95033282     0.35900
C1070       C  0.93232116  0.20844635  0.89072484     0.35900
C1071       C  0.93902151  0.26300177  0.10685019     0.35900
C1072       C  0.93718364  0.29943346  0.04717733     0.35900
C1073       C  0.90427578  0.16092322  0.09025607    -0.21600
C1074       C  0.90634118  0.18344505  0.12894680    -0.21600
C1075       C  0.90070721  0.28840494  0.87340100    -0.21600
C1076       C  0.90139053  0.31093948  0.91210355    -0.21600
C1077       C  0.94511534  0.15943487  0.90434069    -0.22600
C1078       C  0.94460803  0.18252265  0.86639050    -0.22600
C1079       C  0.95319203  0.28877937  0.12923968    -0.22600
C1080       C  0.95225149  0.31184753  0.09131051    -0.22600
C1081       C  0.92526495  0.15591089  0.99787619    -0.18000
C1082       C  0.93161811  0.23529022  0.13411512    -0.18000
C1083       C  0.92793871  0.31572825  0.00063750    -0.18000
C1084       C  0.92413965  0.23629391  0.86491537    -0.18000
H1085       H  0.89292727  0.13867392  0.09506765     0.14900
H1086       H  0.89755898  0.18160803  0.16910483     0.14900
H1087       H  0.88950918  0.29022096  0.83483536     0.14900
H1088       H  0.89018983  0.33327300  0.90902257     0.14900
H1089       H  0.95373593  0.13619793  0.89819382     0.13200
H1090       H  0.95197188  0.18038025  0.82545246     0.13200
H1091       H  0.96282653  0.29084011  0.16897547     0.13200
H1092       H  0.96170791  0.33495129  0.09617841     0.13200
H1093       H  0.94430109  0.21477861  0.03180972     0.26500
H1094       H  0.94360261  0.25658643  0.96444106     0.26500
N1095       N  0.92717001  0.27293424  0.55647636    -0.36300
N1096       N  0.92430650  0.20517882  0.55776558    -0.56900
N1097       N  0.92799399  0.20492672  0.44388571    -0.36300
N1098       N  0.92869666  0.27270745  0.44263810    -0.56900
C1099       C  0.91717443  0.26639473  0.60614869     0.27300
C1100       C  0.91858775  0.30242578  0.54502398     0.27300
C1101       C  0.91701297  0.17610467  0.45459062     0.27300
C1102       C  0.91955633  0.21190008  0.39338456     0.27300
C1103       C  0.93183181  0.21123922  0.60886408     0.35900
C1104       C  0.93137511  0.17508401  0.54929518     0.35900
C1105       C  0.93641510  0.30266867  0.45195202     0.35900
C1106       C  0.93760037  0.26618475  0.39246811     0.35900
C1107       C  0.90177813  0.29174697  0.62669393    -0.21600
C1108       C  0.90223218  0.31438192  0.58785305    -0.21600
C1109       C  0.90081159  0.16500035  0.41060491    -0.21600
C1110       C  0.90266676  0.18754112  0.37179856    -0.21600
C1111       C  0.94415278  0.18511181  0.63308753    -0.22600
C1112       C  0.94415500  0.16218811  0.59515552    -0.22600
C1113       C  0.95108900  0.31503475  0.40754278    -0.22600
C1114       C  0.95164210  0.29191520  0.36973864    -0.22600
C1115       C  0.92458747  0.23917290  0.63472155    -0.18000
C1116       C  0.92749101  0.31896271  0.49846228    -0.18000
C1117       C  0.92896475  0.23873292  0.36544745    -0.18000
C1118       C  0.92357281  0.15923339  0.50180248    -0.18000
H1119       H  0.89149745  0.29376540  0.66572416     0.14900
H1120       H  0.89161537  0.33696466  0.59134244     0.14900
H1121       H  0.88876228  0.14305517  0.40658137     0.14900
H1122       H  0.89279839  0.18613771  0.33214872     0.14900
H1123       H  0.95200196  0.18275584  0.67391286     0.13200
H1124       H  0.95269014  0.13887411  0.60120177     0.13200
H1125       H  0.96034213  0.33820119  0.40233607     0.13200
H1126       H  0.96061014  0.29401537  0.32973718     0.13200
H1127       H  0.94241012  0.25933971  0.53458356     0.26500
H1128       H  0.94353206  0.21762275  0.46729976     0.26500
N1129       N  0.71492042  0.06270435  0.05504790    -0.36300
N1130       N  0.78290743  0.06186446  0.05593959    -0.56900
N1131       N  0.78255643  0.06497046  0.94223204    -0.36300
N1132       N  0.71465500  0.06877278  0.94112020    -0.56900
C1133       C  0.72204475  0.06980282  0.10603742     0.27300
C1134       C  0.68585265  0.07320519  0.04537279     0.27300
C1135       C  0.81247090  0.07228138  0.95335234     0.27300
C1136       C  0.77619393  0.07563339  0.89270936     0.27300
C1137       C  0.77666701  0.05289083  0.10628096     0.35900
C1138       C  0.81269253  0.05401070  0.04654793     0.35900
C1139       C  0.68469922  0.06086759  0.94978762     0.35900
C1140       C  0.72069017  0.06179857  0.88981032     0.35900
C1141       C  0.69750638  0.08528274  0.12912057    -0.21600
C1142       C  0.67476953  0.08778146  0.09068861    -0.21600
C1143       C  0.82495696  0.08845275  0.91051015    -0.21600
C1144       C  0.80212315  0.09023068  0.87203862    -0.21600
C1145       C  0.80239014  0.03899880  0.12914606    -0.22600
C1146       C  0.82517208  0.03937296  0.09111588    -0.22600
C1147       C  0.67195712  0.04820429  0.90369793    -0.22600
C1148       C  0.69468577  0.04915738  0.86562463    -0.22600
C1149       C  0.74910156  0.06019892  0.13315464    -0.18000
C1150       C  0.66882945  0.06743747  0.99785821    -0.18000
C1151       C  0.74876873  0.06894094  0.86394316    -0.18000
C1152       C  0.82885959  0.06253321  0.99969546    -0.18000
H1153       H  0.69609217  0.09378280  0.16954045     0.14900
H1154       H  0.65276963  0.09925691  0.09601694     0.14900
H1155       H  0.84807186  0.09798729  0.90680302     0.14900
H1156       H  0.80446542  0.10061954  0.83297312     0.14900
H1157       H  0.80455810  0.02983141  0.16916940     0.13200
H1158       H  0.84815921  0.02987826  0.09625515     0.13200
H1159       H  0.64897475  0.03875543  0.89759189     0.13200
H1160       H  0.69238327  0.04133029  0.82487511     0.13200
H1161       H  0.72774116  0.04817599  0.03049677     0.26500
H1162       H  0.76847590  0.04997081  0.96406786     0.26500
N1163       N  0.78201866  0.06577064  0.55511651    -0.36300
N1164       N  0.78157312  0.06397819  0.44139922    -0.56900
N1165       N  0.71345242  0.06419484  0.44119844    -0.36300
N1166       N  0.71406846  0.06888324  0.55516497    -0.56900
C1167       C  0.81163272  0.07392258  0.54402190     0.27300
C1168       C  0.77575415  0.07623861  0.60452914     0.27300
C1169       C  0.72022739  0.07173709  0.39028356     0.27300
C1170       C  0.68424162  0.07415971  0.45087835     0.27300
C1171       C  0.81157558  0.05656929  0.45065967     0.35900
C1172       C  0.77527397  0.05576888  0.39067000     0.35900
C1173       C  0.72044032  0.06175529  0.60648400     0.35900
C1174       C  0.68401469  0.06118360  0.54652219     0.35900
C1175       C  0.82402730  0.09035059  0.58673264    -0.21600
C1176       C  0.80143844  0.09148874  0.62514792    -0.21600
C1177       C  0.69522491  0.08674567  0.36710235    -0.21600
C1178       C  0.67263808  0.08863400  0.40542889    -0.21600
C1179       C  0.82413405  0.04293779  0.40568609    -0.22600
C1180       C  0.80123367  0.04287377  0.36749015    -0.22600
C1181       C  0.69459536  0.04908717  0.63066732    -0.22600
C1182       C  0.67158528  0.04834923  0.59259267    -0.22600
C1183       C  0.82787971  0.06486650  0.49769792    -0.18000
C1184       C  0.74831181  0.06979738  0.63273083    -0.18000
C1185       C  0.66769999  0.06838633  0.49873966    -0.18000
C1186       C  0.74766193  0.06349733  0.36348961    -0.18000
H1187       H  0.84687227  0.10060653  0.59022609     0.14900
H1188       H  0.80368754  0.10217748  0.66393481     0.14900
H1189       H  0.69349018  0.09554330  0.32678667     0.14900
H1190       H  0.65047116  0.09983972  0.39994803     0.14900
H1191       H  0.84731718  0.03413354  0.40018547     0.13200
H1192       H  0.80369522  0.03499491  0.32690394     0.13200
H1193       H  0.69249636  0.04142259  0.67156915     0.13200
H1194       H  0.64855598  0.03911698  0.59875852     0.13200
H1195       H  0.76807752  0.05063401  0.53312483     0.26500
H1196       H  0.72678796  0.04995612  0.46584319     0.26500
N1197       N  0.57240918  0.20772038  0.94341487    -0.36300
N1198       N  0.57332572  0.20848687  0.05778996    -0.56900
N1199       N  0.57585217  0.27646900  0.05473447    -0.36300
N1200       N  0.57204133  0.27570662  0.94083294    -0.56900
C1201       C  0.56373668  0.17827632  0.95538829     0.27300
C1202       C  0.56211716  0.21394163  0.89352068     0.27300
C1203       C  0.56748465  0.27062501  0.10552242     0.27300
C1204       C  0.56786491  0.30615492  0.04360754     0.27300
C1205       C  0.58076818  0.17839487  0.04944274     0.35900
C1206       C  0.58156080  0.21512964  0.10850365     0.35900
C1207       C  0.57849247  0.26878990  0.88972622     0.35900
C1208       C  0.58158755  0.30529849  0.94867041     0.35900
C1209       C  0.54701460  0.16602629  0.91276297    -0.21600
C1210       C  0.54632602  0.18844564  0.87355592    -0.21600
C1211       C  0.55363988  0.29664476  0.12701630    -0.21600
C1212       C  0.55343552  0.31896105  0.08771704    -0.21600
C1213       C  0.59434188  0.16613368  0.09523158    -0.22600
C1214       C  0.59435032  0.18929751  0.13280297    -0.22600
C1215       C  0.59237292  0.29387642  0.86482011    -0.22600
C1216       C  0.59472093  0.31692932  0.90232113    -0.22600
C1217       C  0.57287486  0.16195186  0.00220415    -0.18000
C1218       C  0.56914370  0.24112594  0.86440436    -0.18000
C1219       C  0.57583749  0.32208059  0.99602828    -0.18000
C1220       C  0.57505802  0.24345979  0.13401974    -0.18000
H1221       H  0.53618192  0.14340853  0.90981261     0.14900
H1222       H  0.53557146  0.18619905  0.83469601     0.14900
H1223       H  0.54483089  0.29938555  0.16697013     0.14900
H1224       H  0.54366435  0.34190169  0.09176185     0.14900
H1225       H  0.60355835  0.14313472  0.10164304     0.13200
H1226       H  0.60283686  0.18736656  0.17331764     0.13200
H1227       H  0.59992301  0.29540780  0.82388081     0.13200
H1228       H  0.60511607  0.33946359  0.89564953     0.13200
H1229       H  0.58779093  0.22143485  0.96533119     0.26500
H1230       H  0.58982959  0.26230189  0.03148403     0.26500
N1231       N  0.57545057  0.27840100  0.44259973    -0.36300
N1232       N  0.57162800  0.27793003  0.55661949    -0.56900
N1233       N  0.57106887  0.21005280  0.55464692    -0.36300
N1234       N  0.57229557  0.21041079  0.44097600    -0.56900
C1235       C  0.56709113  0.30796968  0.45324097     0.27300
C1236       C  0.56660071  0.27224734  0.39204420     0.27300
C1237       C  0.56116078  0.21650102  0.60431370     0.27300
C1238       C  0.56231546  0.18056933  0.54333046     0.27300
C1239       C  0.58139808  0.30739983  0.54815011     0.35900
C1240       C  0.57844014  0.27107521  0.60785383     0.35900
C1241       C  0.58090726  0.21692190  0.39056870     0.35900
C1242       C  0.57974192  0.18037247  0.45009680     0.35900
C1243       C  0.55191750  0.32039719  0.40911981    -0.21600
C1244       C  0.55199610  0.29791932  0.37024517    -0.21600
C1245       C  0.54531017  0.19115581  0.62471378    -0.21600
C1246       C  0.54574657  0.16852579  0.58602270    -0.21600
C1247       C  0.59504631  0.31902911  0.59425930    -0.22600
C1248       C  0.59280165  0.29608978  0.63222967    -0.22600
C1249       C  0.59389739  0.19107181  0.36721572    -0.22600
C1250       C  0.59370189  0.16803262  0.40514935    -0.22600
C1251       C  0.57532220  0.32407727  0.50045762    -0.18000
C1252       C  0.57417583  0.24500142  0.36423362    -0.18000
C1253       C  0.57158950  0.16405357  0.49723969    -0.18000
C1254       C  0.56968803  0.24323168  0.63337790    -0.18000
H1255       H  0.54171928  0.34316954  0.40489038     0.14900
H1256       H  0.54254516  0.30028094  0.33043011     0.14900
H1257       H  0.53506606  0.18900269  0.66378876     0.14900
H1258       H  0.53517722  0.14580821  0.58951299     0.14900
H1259       H  0.60577615  0.34146080  0.60042408     0.13200
H1260       H  0.60086900  0.29760221  0.67303429     0.13200
H1261       H  0.60261483  0.18903013  0.32707425     0.13200
H1262       H  0.60308486  0.14507084  0.39952571     0.13200
H1263       H  0.58983963  0.26450009  0.46606493     0.26500
H1264       H  0.58668597  0.22348061  0.53290043     0.26500
O1265       O  0.88106686  0.40828369  0.04443873    -0.71500
O1266       O  0.96896929  0.41112798  0.04174918    -0.71700
O1267       O  0.92382372  0.45387878  0.04290352    -0.71600
O1268       O  0.92591421  0.36566948  0.04343099    -0.71600
O1269       O  0.92669595  0.36567420  0.95732275    -0.71500
O1270       O  0.92127013  0.45374048  0.95647933    -0.71500
O1271       O  0.96770474  0.41255160  0.95526094    -0.71500
O1272       O  0.87969319  0.40672005  0.95866532    -0.71700
V1273       V  0.92494395  0.40976580  0.04145180     1.35200
V1274       V  0.92378783  0.40968315  0.95854531     1.35200
C1275       C  0.86512854  0.40602900  0.00229626     0.77800
C1276       C  0.98327781  0.41255557  0.99804799     0.77800
C1277       C  0.92230574  0.46880914  0.99958019     0.77700
C1278       C  0.92688474  0.35046994  0.00049792     0.77700
O1279       O  0.92471436  0.36903882  0.45540174    -0.71500
O1280       O  0.92310295  0.45735590  0.45564083    -0.71700
O1281       O  0.96802851  0.41426324  0.45556088    -0.71600
O1282       O  0.88003300  0.41202180  0.45599770    -0.71600
O1283       O  0.88055109  0.41021164  0.54177683    -0.71500
O1284       O  0.96826982  0.41562639  0.54207816    -0.71500
O1285       O  0.92210954  0.45704460  0.54211936    -0.71500
O1286       O  0.92726799  0.36892228  0.54145077    -0.71700
V1287       V  0.92400672  0.41320440  0.45728163     1.35200
V1288       V  0.92447010  0.41297555  0.54020524     1.35200
C1289       C  0.92653854  0.35375656  0.49837114     0.77800
C1290       C  0.92228769  0.47220546  0.49893244     0.77800
C1291       C  0.98305004  0.41548777  0.49889745     0.77700
C1292       C  0.86505819  0.40955210  0.49890347     0.77700
O1293       O  0.87838597  0.05959998  0.95633699    -0.71500
O1294       O  0.96648189  0.06427829  0.95522234    -0.71700
O1295       O  0.92415768  0.01781395  0.95601119    -0.71600
O1296       O  0.92040556  0.10597238  0.95543763    -0.71600
O1297       O  0.92586907  0.10607739  0.04111956    -0.71500
O1298       O  0.92087110  0.01799843  0.04231737    -0.71500
O1299       O  0.96711548  0.06037541  0.04150713    -0.71500
O1300       O  0.87913720  0.06450247  0.04207475    -0.71700
V1301       V  0.92240630  0.06189244  0.95730246     1.35200
V1302       V  0.92314921  0.06212737  0.04017166     1.35200
C1303       C  0.86356855  0.06215540  0.99939371     0.77800
C1304       C  0.98176299  0.06318309  0.99834808     0.77800
C1305       C  0.92231526  0.00289557  0.99929541     0.77700
C1306       C  0.92368005  0.12122215  0.99809399     0.77700
O1307       O  0.91896746  0.10906057  0.54358533    -0.71500
O1308       O  0.92380437  0.02103253  0.54251505    -0.71700
O1309       O  0.96554441  0.06781033  0.54419121    -0.71600
O1310       O  0.87750899  0.06223670  0.54166861    -0.71600
O1311       O  0.87796785  0.06789031  0.45601709    -0.71500
O1312       O  0.96584818  0.06416749  0.45790167    -0.71500
O1313       O  0.91998409  0.02159663  0.45619798    -0.71500
O1314       O  0.92436542  0.10976078  0.45797208    -0.71700
V1315       V  0.92147895  0.06505172  0.54144272     1.35200
V1316       V  0.92195512  0.06575834  0.45858472     1.35200
C1317       C  0.92210424  0.12458902  0.50113620     0.77800
C1318       C  0.92192637  0.00630050  0.49917287     0.77800
C1319       C  0.98064970  0.06663004  0.50123952     0.77700
C1320       C  0.86255912  0.06497617  0.49842557     0.77700
O1321       O  0.61901348  0.06758418  0.04171380    -0.71500
O1322       O  0.53077265  0.06577266  0.04189003    -0.71700
O1323       O  0.57548839  0.02319126  0.04053032    -0.71600
O1324       O  0.57373736  0.11121743  0.04367458    -0.71600
O1325       O  0.57414004  0.11251335  0.95763954    -0.71500
O1326       O  0.57526395  0.02434930  0.95399492    -0.71500
O1327       O  0.53055697  0.06724286  0.95540056    -0.71500
O1328       O  0.61855565  0.06950364  0.95572582    -0.71700
V1329       V  0.57481592  0.06710300  0.04031486     1.35200
V1330       V  0.57461049  0.06841383  0.95737117     1.35200
C1331       C  0.63402622  0.06833103  0.99853562     0.77800
C1332       C  0.51572066  0.06547256  0.99852846     0.77800
C1333       C  0.57531386  0.00885005  0.99680647     0.77700
C1334       C  0.57361644  0.12711103  0.00125920     0.77700
O1335       O  0.57227110  0.11364064  0.45585220    -0.71500
O1336       O  0.57345478  0.02569468  0.45735267    -0.71700
O1337       O  0.52912207  0.06880535  0.45761152    -0.71600
O1338       O  0.61723598  0.06959959  0.45609942    -0.71600
O1339       O  0.61803014  0.07137579  0.54205974    -0.71500
O1340       O  0.52994158  0.06903697  0.54413633    -0.71500
O1341       O  0.57492104  0.02607493  0.54387029    -0.71500
O1342       O  0.57325015  0.11440493  0.54192225    -0.71700
V1343       V  0.57309641  0.06959093  0.45841851     1.35200
V1344       V  0.57400238  0.07022690  0.54137049     1.35200
C1345       C  0.57236288  0.12925258  0.49839298     0.77800
C1346       C  0.57433996  0.01094722  0.50077042     0.77800
C1347       C  0.51459184  0.06823288  0.50113022     0.77700
C1348       C  0.63288344  0.07000586  0.49890900     0.77700
O1349       O  0.57921000  0.37195386  0.03861310    -0.71500
O1350       O  0.57442087  0.45981860  0.03929325    -0.71700
O1351       O  0.53272014  0.41326797  0.03998103    -0.71600
O1352       O  0.62050416  0.41884423  0.03810529    -0.71600
O1353       O  0.61981977  0.41675965  0.95227234    -0.71500
O1354       O  0.53163355  0.41598692  0.95356970    -0.71500
O1355       O  0.57584516  0.46025268  0.95279062    -0.71500
O1356       O  0.57518343  0.37211401  0.95275706    -0.71700
V1357       V  0.57665781  0.41591911  0.03734492     1.35200
V1358       V  0.57570155  0.41620509  0.95443294     1.35200
C1359       C  0.57695828  0.35682051  0.99570274     0.77800
C1360       C  0.57514720  0.47496155  0.99617520     0.77800
C1361       C  0.51722644  0.41404422  0.99712682     0.77700
C1362       C  0.63532960  0.41981845  0.99491268     0.77700
O1363       O  0.61952780  0.42050986  0.45762268    -0.71500
O1364       O  0.53186069  0.41599015  0.45632066    -0.71700
O1365       O  0.57382574  0.46217598  0.45736976    -0.71600
O1366       O  0.57783020  0.37407441  0.45724876    -0.71600
O1367       O  0.57512656  0.37397165  0.54319574    -0.71500
O1368       O  0.57592443  0.46198090  0.54386229    -0.71500
O1369       O  0.53174813  0.41793738  0.54280203    -0.71500
O1370       O  0.61986105  0.41830489  0.54340893    -0.71700
V1371       V  0.57575268  0.41814692  0.45877536     1.35200
V1372       V  0.57572697  0.41798313  0.54170129     1.35200
C1373       C  0.63489230  0.42117679  0.50051807     0.77800
C1374       C  0.51689755  0.41656262  0.49932535     0.77800
C1375       C  0.57469435  0.47701907  0.50072015     0.77700
C1376       C  0.57627230  0.35881305  0.50028127     0.77700
C1377       C  0.54805837  0.25998969  0.72017514    -0.26000
C1378       C  0.56961985  0.24190127  0.69264813    -0.14100
C1379       C  0.59039727  0.22285760  0.72187053     0.36500
C1380       C  0.58880163  0.22229000  0.77756856    -0.25500
C1381       C  0.56735970  0.24051918  0.80512580    -0.14700
C1382       C  0.54645559  0.25941672  0.77587843     0.37600
N1383       N  0.52307769  0.27788038  0.80104527    -0.89000
H1384       H  0.53226003  0.27467318  0.69795829     0.18700
H1385       H  0.60518117  0.20818083  0.79974928     0.18700
N1386       N  0.61422751  0.20486931  0.69687163    -0.88000
H1387       H  0.52882470  0.30123828  0.79517270     0.36100
H1388       H  0.52212494  0.27398989  0.84200479     0.41200
H1389       H  0.61529615  0.20880160  0.65594898     0.40800
H1390       H  0.60877167  0.18141739  0.70246323     0.35700
C1391       C  0.54770642  0.23884895  0.22004014    -0.26000
C1392       C  0.57545597  0.24467817  0.19308036    -0.14100
C1393       C  0.60263043  0.25192437  0.22250866     0.36500
C1394       C  0.60140939  0.25217052  0.27826868    -0.25500
C1395       C  0.57378658  0.24547984  0.30519672    -0.14700
C1396       C  0.54645997  0.23921608  0.27571633     0.37600
N1397       N  0.51714405  0.23333440  0.30072724    -0.89000
H1398       H  0.52677574  0.23428941  0.19732247     0.18700
H1399       H  0.62225280  0.25744999  0.30087513     0.18700
N1400       N  0.63161044  0.25939431  0.19741947    -0.88000
H1401       H  0.50247525  0.25170494  0.29049531     0.36100
H1402       H  0.51882166  0.23325538  0.34216493     0.41200
H1403       H  0.62980248  0.25902656  0.15598901     0.40800
H1404       H  0.64750094  0.24215669  0.20806881     0.35700
C1405       C  0.73172732  0.09140969  0.77705951    -0.26000
C1406       C  0.74953694  0.06927333  0.80457021    -0.14100
C1407       C  0.76776235  0.04813564  0.77517157     0.36500
C1408       C  0.76724467  0.04938222  0.71947813    -0.25500
C1409       C  0.74902721  0.07112305  0.69198878    -0.14700
C1410       C  0.73140226  0.09281325  0.72127605     0.37600
N1411       N  0.71362152  0.11698996  0.69612202    -0.89000
H1412       H  0.71814578  0.10799873  0.79928506     0.18700
H1413       H  0.78075436  0.03270561  0.69728784     0.18700
N1414       N  0.78628813  0.02448845  0.80004635    -0.88000
H1415       H  0.69018247  0.11222535  0.70284512     0.36100
H1416       H  0.71682275  0.11760031  0.65501484     0.41200
H1417       H  0.78301850  0.02330888  0.84106915     0.40800
H1418       H  0.80957781  0.03003451  0.79353420     0.35700
C1419       C  0.76636363  0.08267302  0.21909608    -0.26000
C1420       C  0.74904566  0.05989369  0.19228471    -0.14100
C1421       C  0.73084928  0.03863149  0.22189196     0.36500
C1422       C  0.73016738  0.04107956  0.27744659    -0.25500
C1423       C  0.74771219  0.06369755  0.30430429    -0.14700
C1424       C  0.76590132  0.08496604  0.27462227     0.37600
N1425       N  0.78345102  0.10962286  0.29904890    -0.89000
H1426       H  0.77996495  0.09924256  0.19645206     0.18700
H1427       H  0.71652790  0.02453323  0.30008318     0.18700
N1428       N  0.71364375  0.01377909  0.19735171    -0.88000
H1429       H  0.80695886  0.10483658  0.29354590     0.36100
H1430       H  0.77970624  0.11093753  0.33994941     0.41200
H1431       H  0.71737040  0.01267184  0.15641112     0.40800
H1432       H  0.69007182  0.51819087  0.20290792     0.35700
C1433       C  0.94499271  0.25554252  0.77947716    -0.26000
C1434       C  0.92283258  0.23742061  0.80590629    -0.14100
C1435       C  0.90032577  0.22090988  0.77592892     0.36500
C1436       C  0.90140303  0.22214232  0.72025858    -0.25500
C1437       C  0.92412378  0.23966618  0.69380320    -0.14700
C1438       C  0.94608959  0.25681406  0.72389958     0.37600
N1439       N  0.97036149  0.27489140  0.69983391    -0.89000
H1440       H  0.96192622  0.26848672  0.80249484     0.18700
H1441       H  0.88425797  0.20937166  0.69729762     0.18700
N1442       N  0.87567642  0.20346505  0.80028658    -0.88000
H1443       H  0.96608957  0.29825344  0.70813297     0.36100
H1444       H  0.97082022  0.27257546  0.65855506     0.41200
H1445       H  0.87574301  0.20569346  0.84161915     0.40800
H1446       H  0.87927096  0.18001079  0.79177742     0.35700
C1447       C  0.94746567  0.21600127  0.28045182    -0.26000
C1448       C  0.92874611  0.23793497  0.30605413    -0.14100
C1449       C  0.90981548  0.25777132  0.27477087     0.36500
C1450       C  0.91181281  0.25649734  0.21919403    -0.25500
C1451       C  0.93148374  0.23545044  0.19354711    -0.14700
C1452       C  0.94951499  0.21471454  0.22479845     0.37600
N1453       N  0.96988565  0.19204621  0.20183546    -0.89000
H1454       H  0.96127358  0.20009961  0.30418138     0.18700
H1455       H  0.89730008  0.27180475  0.19554969     0.18700
N1456       N  0.88777356  0.27885247  0.29754499    -0.88000
H1457       H  0.99190643  0.19509549  0.21855227     0.36100
H1458       H  0.97268928  0.19565299  0.16109422     0.41200
H1459       H  0.88641780  0.27642214  0.33874606     0.40800
H1460       H  0.86582921  0.27267355  0.28305447     0.35700
C1461       C  0.73337542  0.38784067  0.77853143    -0.26000
C1462       C  0.75224879  0.40936232  0.80539606    -0.14100
C1463       C  0.77139734  0.42969272  0.77623804     0.36500
C1464       C  0.77034550  0.42903697  0.72047583    -0.25500
C1465       C  0.75113596  0.40783816  0.69351682    -0.14700
C1466       C  0.73279842  0.38671901  0.72270895     0.37600
N1467       N  0.71350763  0.36452520  0.69542787    -0.89000
H1468       H  0.71899139  0.37204832  0.80132815     0.18700
H1469       H  0.78452563  0.44507329  0.69778368     0.18700
N1470       N  0.79187888  0.45073919  0.80357141    -0.88000
H1471       H  0.70126100  0.35089462  0.72271685     0.36100
H1472       H  0.72808890  0.34951685  0.67472678     0.41200
H1473       H  0.77818039  0.46582815  0.82574317     0.40800
H1474       H  0.80433216  0.46423002  0.77636393     0.35700
C1475       C  0.76375015  0.44721923  0.22013004    -0.26000
C1476       C  0.74812355  0.42309051  0.19363297    -0.14100
C1477       C  0.73231628  0.40031409  0.22330435     0.36500
C1478       C  0.73261073  0.40171079  0.27900021    -0.25500
C1479       C  0.74863479  0.42551003  0.30557883    -0.14700
C1480       C  0.76426763  0.44842749  0.27595139     0.37600
N1481       N  0.78085943  0.47271422  0.30259849    -0.87400
H1482       H  0.77590425  0.46483863  0.19739137     0.18700
H1483       H  0.72069259  0.38391386  0.30169249     0.18700
N1484       N  0.71642840  0.37545685  0.19681653    -0.88000
H1485       H  0.77192395  0.49384925  0.28927248     0.36100
H1486       H  0.80405559  0.47163500  0.29095140     0.41200
H1487       H  0.69314765  0.37605024  0.20810037     0.40800
H1488       H  0.72585660  0.35450242  0.21025731     0.35700
N1489       N  0.71580214  0.91936648  0.05464493    -0.36300
N1490       N  0.78392307  0.91329974  0.05846613    -0.56900
N1491       N  0.78458660  0.91050792  0.94439844    -0.36300
N1492       N  0.71663366  0.91688721  0.94051066    -0.56900
C1493       C  0.72184950  0.92748892  0.10569883     0.27300
C1494       C  0.68604433  0.92756569  0.04399485     0.27300
C1495       C  0.81366307  0.90023762  0.95521086     0.27300
C1496       C  0.77801842  0.90252023  0.89347005     0.27300
C1497       C  0.77772541  0.91263045  0.11113746     0.35900
C1498       C  0.81439393  0.90649008  0.05326783     0.35900
C1499       C  0.68625939  0.92377485  0.94592265     0.35900
C1500       C  0.72323153  0.92022179  0.88836406     0.35900
C1501       C  0.69597190  0.94135266  0.12749620    -0.21600
C1502       C  0.67352553  0.94164732  0.08863824    -0.21600
C1503       C  0.82513665  0.88499340  0.91087682    -0.21600
C1504       C  0.80278545  0.88664584  0.87195714    -0.21600
C1505       C  0.80401732  0.90446507  0.13957139    -0.22600
C1506       C  0.82712872  0.90047196  0.10324522    -0.22600
C1507       C  0.67393890  0.93274893  0.89705580    -0.22600
C1508       C  0.69735823  0.93054904  0.86075676    -0.22600
C1509       C  0.74930815  0.92106484  0.13460752    -0.18000
C1510       C  0.67006993  0.92322025  0.99484286    -0.18000
C1511       C  0.75120637  0.91100341  0.86444411    -0.18000
C1512       C  0.83021078  0.90436979  0.00380408    -0.18000
H1513       H  0.69354315  0.95051686  0.16732499     0.14900
H1514       H  0.65104779  0.95235131  0.09276005     0.14900
H1515       H  0.84692126  0.87293362  0.90697457     0.14900
H1516       H  0.80453905  0.87712025  0.83226036     0.14900
H1517       H  0.80635891  0.90144188  0.18219906     0.13200
H1518       H  0.84999495  0.89232604  0.11365653     0.13200
H1519       H  0.65106247  0.94150462  0.88806816     0.13200
H1520       H  0.69542075  0.93575075  0.81868716     0.13200
H1521       H  0.73001788  0.90591367  0.03075716     0.26500
H1522       H  0.77138216  0.92525109  0.96783246     0.26500
N1523       N  0.78422035  0.91930269  0.44277661    -0.36300
N1524       N  0.71595350  0.92406027  0.44324786    -0.56900
N1525       N  0.71575041  0.91364958  0.55634249    -0.36300
N1526       N  0.78398770  0.90878549  0.55590494    -0.56900
C1527       C  0.77747959  0.91663982  0.39023188     0.27300
C1528       C  0.81374244  0.90915012  0.44980460     0.27300
C1529       C  0.68618598  0.92351460  0.54911787     0.27300
C1530       C  0.72263156  0.91731275  0.60861197     0.27300
C1531       C  0.72161919  0.93133403  0.39182660     0.35900
C1532       C  0.68532555  0.92895653  0.45104954     0.35900
C1533       C  0.81441019  0.90288946  0.54796315     0.35900
C1534       C  0.77814371  0.90155520  0.60725564     0.35900
C1535       C  0.80275220  0.90465940  0.36368382    -0.21600
C1536       C  0.82543574  0.89970196  0.40105189    -0.21600
C1537       C  0.67455237  0.93391051  0.59728399    -0.21600
C1538       C  0.69745002  0.92991681  0.63466368    -0.21600
C1539       C  0.69493404  0.94205870  0.36733829    -0.22600
C1540       C  0.67204577  0.94078161  0.40465957    -0.22600
C1541       C  0.82737928  0.89053912  0.59417227    -0.22600
C1542       C  0.80449845  0.88985782  0.63153640    -0.22600
C1543       C  0.74951713  0.92540700  0.36479669    -0.18000
C1544       C  0.83018172  0.90748374  0.49904043    -0.18000
C1545       C  0.75042180  0.90828316  0.63429498    -0.18000
C1546       C  0.66967567  0.92406606  0.50007653    -0.18000
H1547       H  0.80450854  0.89933564  0.32172446     0.14900
H1548       H  0.84730478  0.88864173  0.39276089     0.14900
H1549       H  0.65251215  0.94482266  0.60492262     0.14900
H1550       H  0.69581163  0.93601848  0.67632056     0.14900
H1551       H  0.69218909  0.94993271  0.32661357     0.13200
H1552       H  0.64882245  0.94923916  0.39794948     0.13200
H1553       H  0.85037044  0.88142336  0.60067171     0.13200
H1554       H  0.80704856  0.88171892  0.67213643     0.13200
H1555       H  0.77043270  0.93010983  0.47100023     0.26500
H1556       H  0.72936328  0.90222260  0.52856091     0.26500
N1557       N  0.92956088  0.70162678  0.05575642    -0.36300
N1558       N  0.92531086  0.70210602  0.94187015    -0.56900
N1559       N  0.92780050  0.76995193  0.94281153    -0.36300
N1560       N  0.92955259  0.76945084  0.05671996    -0.56900
C1561       C  0.91919660  0.67251836  0.04545761     0.27300
C1562       C  0.92200966  0.70832922  0.10658069     0.27300
C1563       C  0.91706714  0.76337154  0.89349496     0.27300
C1564       C  0.91873709  0.79920240  0.95437601     0.27300
C1565       C  0.93263066  0.67203052  0.95033319     0.35900
C1566       C  0.93232137  0.70844664  0.89072511     0.35900
C1567       C  0.93902316  0.76300217  0.10685039     0.35900
C1568       C  0.93718388  0.79943379  0.04717762     0.35900
C1569       C  0.90427846  0.66092328  0.09025758    -0.21600
C1570       C  0.90634422  0.68344507  0.12894829    -0.21600
C1571       C  0.90070722  0.78840520  0.87340127    -0.21600
C1572       C  0.90139027  0.81093965  0.91210394    -0.21600
C1573       C  0.94511588  0.65943523  0.90434070    -0.22600
C1574       C  0.94460807  0.68252297  0.86639044    -0.22600
C1575       C  0.95319368  0.78877994  0.12923925    -0.22600
C1576       C  0.95225225  0.81184808  0.09131012    -0.22600
C1577       C  0.92526636  0.65591117  0.99787674    -0.18000
C1578       C  0.93162052  0.73529055  0.13411568    -0.18000
C1579       C  0.92793826  0.81572844  0.00063806    -0.18000
C1580       C  0.92413958  0.73629417  0.86491579    -0.18000
H1581       H  0.89293007  0.63867396  0.09506959     0.14900
H1582       H  0.89756247  0.68160798  0.16910662     0.14900
H1583       H  0.88950933  0.79022126  0.83483551     0.14900
H1584       H  0.89018947  0.83327310  0.90902287     0.14900
H1585       H  0.95373651  0.63619832  0.89819364     0.13200
H1586       H  0.95197150  0.68038058  0.82545218     0.13200
H1587       H  0.96282881  0.79084079  0.16897459     0.13200
H1588       H  0.96170851  0.83495194  0.09617753     0.13200
H1589       H  0.94430257  0.71477905  0.03180978     0.26500
H1590       H  0.94360245  0.75658670  0.96444158     0.26500
N1591       N  0.92716770  0.77293429  0.55647682    -0.36300
N1592       N  0.92430484  0.70517891  0.55776636    -0.56900
N1593       N  0.92799532  0.70492659  0.44388646    -0.36300
N1594       N  0.92869721  0.77270735  0.44263875    -0.56900
C1595       C  0.91717138  0.76639496  0.60614877     0.27300
C1596       C  0.91858602  0.80242593  0.54502400     0.27300
C1597       C  0.91701436  0.67610445  0.45459095     0.27300
C1598       C  0.91955853  0.71189977  0.39338480     0.27300
C1599       C  0.93182894  0.71123948  0.60886531     0.35900
C1600       C  0.93137422  0.67508423  0.54929654     0.35900
C1601       C  0.93641511  0.80266868  0.45195290     0.35900
C1602       C  0.93760172  0.76618475  0.39246914     0.35900
C1603       C  0.90177517  0.79174745  0.62669334    -0.21600
C1604       C  0.90223005  0.81438237  0.58785238    -0.21600
C1605       C  0.90081399  0.66499988  0.41060433    -0.21600
C1606       C  0.90266968  0.68754057  0.37179798    -0.21600
C1607       C  0.94414986  0.68511232  0.63308965    -0.22600
C1608       C  0.94415335  0.66218860  0.59515773    -0.22600
C1609       C  0.95108947  0.81503493  0.40754424    -0.22600
C1610       C  0.95164336  0.79191540  0.36974017    -0.22600
C1611       C  0.92458398  0.73917319  0.63472212    -0.18000
C1612       C  0.92749019  0.81896272  0.49846268    -0.18000
C1613       C  0.92896680  0.73873284  0.36544811    -0.18000
C1614       C  0.92357317  0.65923339  0.50180350    -0.18000
H1615       H  0.89149412  0.79376609  0.66572325     0.14900
H1616       H  0.89161365  0.83696534  0.59134128     0.14900
H1617       H  0.88876483  0.64305465  0.40658022     0.14900
H1618       H  0.89280199  0.68613700  0.33214766     0.14900
H1619       H  0.95199827  0.68275655  0.67391544     0.13200
H1620       H  0.95268884  0.63887478  0.60120457     0.13200
H1621       H  0.96034231  0.83820151  0.40233785     0.13200
H1622       H  0.96061184  0.79401571  0.32973903     0.13200
H1623       H  0.94240806  0.75933960  0.53458481     0.26500
H1624       H  0.94353267  0.71762289  0.46730149     0.26500
N1625       N  0.71492060  0.56270459  0.05504903    -0.36300
N1626       N  0.78290780  0.56186600  0.05594139    -0.56900
N1627       N  0.78255691  0.56497174  0.94223380    -0.36300
N1628       N  0.71465553  0.56877291  0.94112126    -0.56900
C1629       C  0.72204464  0.56980285  0.10603875     0.27300
C1630       C  0.68585275  0.57320516  0.04537371     0.27300
C1631       C  0.81247130  0.57228295  0.95335408     0.27300
C1632       C  0.77619444  0.57563414  0.89271079     0.27300
C1633       C  0.77666726  0.55289192  0.10628252     0.35900
C1634       C  0.81269301  0.55401255  0.04654985     0.35900
C1635       C  0.68469981  0.56086747  0.94978855     0.35900
C1636       C  0.72069093  0.56179832  0.88981164     0.35900
C1637       C  0.69750598  0.58528229  0.12912189    -0.21600
C1638       C  0.67476927  0.58778102  0.09068967    -0.21600
C1639       C  0.82495733  0.58845407  0.91051157    -0.21600
C1640       C  0.80212357  0.59023150  0.87203985    -0.21600
C1641       C  0.80239048  0.53900005  0.12914761    -0.22600
C1642       C  0.82517256  0.53937470  0.09111770    -0.22600
C1643       C  0.67195797  0.54820364  0.90369910    -0.22600
C1644       C  0.69468675  0.54915659  0.86562604    -0.22600
C1645       C  0.74910153  0.56019923  0.13315605    -0.18000
C1646       C  0.66882981  0.56743755  0.99785876    -0.18000
C1647       C  0.74876944  0.56894094  0.86394451    -0.18000
C1648       C  0.82886005  0.56253488  0.99969721    -0.18000
H1649       H  0.69609150  0.59378210  0.16954191     0.14900
H1650       H  0.65276923  0.59925620  0.09601796     0.14900
H1651       H  0.84807221  0.59798864  0.90680428     0.14900
H1652       H  0.80446587  0.60061994  0.83297403     0.14900
H1653       H  0.80455835  0.52983229  0.16917072     0.13200
H1654       H  0.84815969  0.52988004  0.09625701     0.13200
H1655       H  0.64897569  0.53875453  0.89759318     0.13200
H1656       H  0.69238446  0.54132912  0.82487669     0.13200
H1657       H  0.72774166  0.54817655  0.03049785     0.26500
H1658       H  0.76847652  0.54997206  0.96406981     0.26500
N1659       N  0.78201894  0.56576928  0.55511791    -0.36300
N1660       N  0.78157331  0.56397685  0.44140080    -0.56900
N1661       N  0.71345244  0.56419351  0.44120000    -0.36300
N1662       N  0.71406857  0.56888184  0.55516636    -0.56900
C1663       C  0.81163296  0.57392147  0.54402339     0.27300
C1664       C  0.77575432  0.57623714  0.60453056     0.27300
C1665       C  0.72022746  0.57173569  0.39028511     0.27300
C1666       C  0.68424172  0.57415866  0.45087986     0.27300
C1667       C  0.81157599  0.55656858  0.45066092     0.35900
C1668       C  0.77527420  0.55576772  0.39067146     0.35900
C1669       C  0.72044043  0.56175381  0.60648535     0.35900
C1670       C  0.68401466  0.56118267  0.54652372     0.35900
C1671       C  0.82402740  0.59034947  0.58673424    -0.21600
C1672       C  0.80143850  0.59148741  0.62514945    -0.21600
C1673       C  0.69522510  0.58674445  0.36710386    -0.21600
C1674       C  0.67263831  0.58863303  0.40543038    -0.21600
C1675       C  0.82413464  0.54293767  0.40568698    -0.22600
C1676       C  0.80123416  0.54287336  0.36749122    -0.22600
C1677       C  0.69459531  0.54908605  0.63066877    -0.22600
C1678       C  0.67158513  0.54834851  0.59259426    -0.22600
C1679       C  0.82788006  0.56486579  0.49769927    -0.18000
C1680       C  0.74831197  0.56979583  0.63273219    -0.18000
C1681       C  0.66770002  0.56838559  0.49874120    -0.18000
C1682       C  0.74766201  0.56349592  0.36349119    -0.18000
H1683       H  0.84687226  0.60060562  0.59022778     0.14900
H1684       H  0.80368750  0.60217616  0.66393634     0.14900
H1685       H  0.69349046  0.59554213  0.32678821     0.14900
H1686       H  0.65047151  0.59983900  0.39994951     0.14900
H1687       H  0.84731797  0.53413403  0.40018594     0.13200
H1688       H  0.80369588  0.53499498  0.32690478     0.13200
H1689       H  0.69249624  0.54142157  0.67157065     0.13200
H1690       H  0.64855566  0.53911669  0.59876023     0.13200
H1691       H  0.76807786  0.55063263  0.53312613     0.26500
H1692       H  0.72678792  0.54995474  0.46584478     0.26500
N1693       N  0.57240922  0.70772065  0.94341437    -0.36300
N1694       N  0.57332589  0.70848696  0.05778952    -0.56900
N1695       N  0.57585187  0.77646893  0.05473416    -0.36300
N1696       N  0.57204114  0.77570677  0.94083264    -0.56900
C1697       C  0.56373662  0.67827664  0.95538776     0.27300
C1698       C  0.56211709  0.71394200  0.89352029     0.27300
C1699       C  0.56748467  0.77062490  0.10552223     0.27300
C1700       C  0.56786430  0.80615475  0.04360733     0.27300
C1701       C  0.58076834  0.67839498  0.04944207     0.35900
C1702       C  0.58156121  0.71512967  0.10850313     0.35900
C1703       C  0.57849285  0.76879004  0.88972618     0.35900
C1704       C  0.58158750  0.80529853  0.94867054     0.35900
C1705       C  0.54701435  0.66602672  0.91276258    -0.21600
C1706       C  0.54632572  0.68844613  0.87355561    -0.21600
C1707       C  0.55363973  0.79664452  0.12701628    -0.21600
C1708       C  0.55343491  0.81896075  0.08771696    -0.21600
C1709       C  0.59434220  0.66613372  0.09523071    -0.22600
C1710       C  0.59435081  0.68929750  0.13280219    -0.22600
C1711       C  0.59237390  0.79387643  0.86482066    -0.22600
C1712       C  0.59472158  0.81692931  0.90232183    -0.22600
C1713       C  0.57287495  0.66195208  0.00220340    -0.18000
C1714       C  0.56914379  0.74112629  0.86440400    -0.18000
C1715       C  0.57583698  0.82208054  0.99602828    -0.18000
C1716       C  0.57505855  0.74345980  0.13401939    -0.18000
H1717       H  0.53618161  0.64340898  0.90981226     0.14900
H1718       H  0.53557104  0.68619961  0.83469579     0.14900
H1719       H  0.54483097  0.79938529  0.16697027     0.14900
H1720       H  0.54366356  0.84190131  0.09176191     0.14900
H1721       H  0.60355867  0.64313475  0.10164195     0.13200
H1722       H  0.60283751  0.68736649  0.17331676     0.13200
H1723       H  0.59992451  0.79540777  0.82388165     0.13200
H1724       H  0.60511693  0.83946354  0.89565077     0.13200
H1725       H  0.58779111  0.72143500  0.96533059     0.26500
H1726       H  0.58982942  0.76230198  0.03148365     0.26500
N1727       N  0.57545074  0.77840086  0.44259941    -0.36300
N1728       N  0.57162729  0.77792997  0.55661927    -0.56900
N1729       N  0.57106858  0.71005299  0.55464646    -0.36300
N1730       N  0.57229651  0.71041089  0.44097562    -0.56900
C1731       C  0.56709075  0.80796937  0.45324060     0.27300
C1732       C  0.56660160  0.77224725  0.39204352     0.27300
C1733       C  0.56116015  0.71650125  0.60431302     0.27300
C1734       C  0.56231507  0.68056961  0.54332981     0.27300
C1735       C  0.58139781  0.80739954  0.54814951     0.35900
C1736       C  0.57844027  0.77107497  0.60785318     0.35900
C1737       C  0.58090838  0.71692186  0.39056837     0.35900
C1738       C  0.57974239  0.68037247  0.45009657     0.35900
C1739       C  0.55191744  0.82039680  0.40911906    -0.21600
C1740       C  0.55199691  0.79791910  0.37024419    -0.21600
C1741       C  0.54530910  0.69115620  0.62471268    -0.21600
C1742       C  0.54574568  0.66852618  0.58602159    -0.21600
C1743       C  0.59504719  0.81902854  0.59425787    -0.22600
C1744       C  0.59280288  0.79608917  0.63222827    -0.22600
C1745       C  0.59389813  0.69107154  0.36721549    -0.22600
C1746       C  0.59370222  0.66803238  0.40514917    -0.22600
C1747       C  0.57532149  0.82407700  0.50045735    -0.18000
C1748       C  0.57417723  0.74500141  0.36423313    -0.18000
C1749       C  0.57158964  0.66405375  0.49723953    -0.18000
C1750       C  0.56968784  0.74323166  0.63337746    -0.18000
H1751       H  0.54171897  0.84316903  0.40488944     0.14900
H1752       H  0.54254646  0.80028076  0.33042880     0.14900
H1753       H  0.53506474  0.68900313  0.66378747     0.14900
H1754       H  0.53517623  0.64580863  0.58951159     0.14900
H1755       H  0.60577759  0.84146005  0.60042188     0.13200
H1756       H  0.60087115  0.79760132  0.67303240     0.13200
H1757       H  0.60261552  0.68902967  0.32707401     0.13200
H1758       H  0.60308479  0.64507045  0.39952549     0.13200
H1759       H  0.58983976  0.76450011  0.46606497     0.26500
H1760       H  0.58668607  0.72348062  0.53290047     0.26500
O1761       O  0.88106631  0.90828397  0.04444016    -0.71500
O1762       O  0.96896867  0.91112793  0.04174919    -0.71700
O1763       O  0.92382336  0.95387881  0.04290412    -0.71600
O1764       O  0.92591352  0.86566958  0.04343169    -0.71600
O1765       O  0.92669489  0.86567432  0.95732344    -0.71500
O1766       O  0.92126938  0.95374046  0.95647993    -0.71500
O1767       O  0.96770377  0.91255152  0.95526095    -0.71500
O1768       O  0.87969222  0.90672029  0.95866674    -0.71700
V1769       V  0.92494338  0.90976588  0.04145248     1.35200
V1770       V  0.92378687  0.90968320  0.95854599     1.35200
C1771       C  0.86512779  0.90602937  0.00229792     0.77800
C1772       C  0.98327699  0.91255554  0.99804783     0.77800
C1773       C  0.92230534  0.96880911  0.99958075     0.77700
C1774       C  0.92688395  0.85047007  0.00049858     0.77700
O1775       O  0.92471304  0.86903859  0.45540170    -0.71500
O1776       O  0.92310208  0.95735568  0.45563947    -0.71700
O1777       O  0.96802746  0.91426282  0.45555901    -0.71600
O1778       O  0.88003196  0.91202178  0.45599831    -0.71600
O1779       O  0.88055073  0.91021132  0.54177742    -0.71500
O1780       O  0.96826930  0.91562689  0.54207625    -0.71500
O1781       O  0.92210875  0.95704472  0.54211799    -0.71500
O1782       O  0.92726789  0.86892241  0.54145068    -0.71700
V1783       V  0.92400565  0.91320417  0.45728094     1.35200
V1784       V  0.92446967  0.91297568  0.54020455     1.35200
C1785       C  0.92653780  0.85375654  0.49837123     0.77800
C1786       C  0.92228687  0.97220542  0.49893089     0.77800
C1787       C  0.98304925  0.91548785  0.49889528     0.77700
C1788       C  0.86505751  0.90955186  0.49890443     0.77700
O1789       O  0.87838612  0.55960090  0.95633784    -0.71500
O1790       O  0.96648209  0.56427816  0.95522122    -0.71700
O1791       O  0.92415742  0.51781419  0.95601078    -0.71600
O1792       O  0.92040628  0.60597276  0.95543784    -0.71600
O1793       O  0.92587027  0.60607751  0.04111967    -0.71500
O1794       O  0.92087157  0.51799853  0.04231703    -0.71500
O1795       O  0.96711621  0.56037524  0.04150600    -0.71500
O1796       O  0.87913800  0.56450307  0.04207562    -0.71700
V1797       V  0.92240649  0.56189276  0.95730235     1.35200
V1798       V  0.92314999  0.56212751  0.04017154     1.35200
C1799       C  0.86356902  0.56215646  0.99939487     0.77800
C1800       C  0.98176345  0.56318293  0.99834668     0.77800
C1801       C  0.92231541  0.50289570  0.99929498     0.77700
C1802       C  0.92368117  0.62122241  0.99809427     0.77700
O1803       O  0.91896758  0.60906063  0.54358678    -0.71500
O1804       O  0.92380513  0.52103255  0.54251688    -0.71700
O1805       O  0.96554482  0.56781069  0.54419309    -0.71600
O1806       O  0.87750939  0.56223637  0.54167010    -0.71600
O1807       O  0.87796832  0.56789027  0.45601866    -0.71500
O1808       O  0.96584867  0.56416735  0.45790361    -0.71500
O1809       O  0.91998457  0.52159663  0.45619983    -0.71500
O1810       O  0.92436609  0.60976065  0.45797367    -0.71700
V1811       V  0.92147937  0.56505175  0.54144443     1.35200
V1812       V  0.92195564  0.56575828  0.45858646     1.35200
C1813       C  0.92210464  0.62458900  0.50113760     0.77800
C1814       C  0.92192706  0.50630052  0.49917469     0.77800
C1815       C  0.98065015  0.56663016  0.50124143     0.77700
C1816       C  0.86255953  0.56497585  0.49842703     0.77700
O1817       O  0.61901354  0.56758416  0.04171314    -0.71500
O1818       O  0.53077281  0.56577295  0.04188755    -0.71700
O1819       O  0.57548836  0.52319143  0.04052835    -0.71600
O1820       O  0.57373759  0.61121755  0.04367332    -0.71600
O1821       O  0.57414038  0.61251372  0.95763827    -0.71500
O1822       O  0.57526488  0.52434962  0.95399297    -0.71500
O1823       O  0.53055754  0.56724295  0.95539807    -0.71500
O1824       O  0.61855633  0.56950424  0.95572518    -0.71700
V1825       V  0.57481603  0.56710315  0.04031323     1.35200
V1826       V  0.57461111  0.56841418  0.95736955     1.35200
C1827       C  0.63402659  0.56833127  0.99853532     0.77800
C1828       C  0.51572102  0.56547272  0.99852579     0.77800
C1829       C  0.57531437  0.50885029  0.99680445     0.77700
C1830       C  0.57361667  0.62711127  0.00125808     0.77700
O1831       O  0.57227141  0.61364072  0.45585288    -0.71500
O1832       O  0.57345450  0.52569493  0.45735416    -0.71700
O1833       O  0.52912210  0.56880586  0.45761266    -0.71600
O1834       O  0.61723603  0.56959938  0.45610084    -0.71600
O1835       O  0.61803015  0.57137587  0.54206114    -0.71500
O1836       O  0.52994156  0.56903770  0.54413748    -0.71500
O1837       O  0.57492080  0.52607529  0.54387177    -0.71500
O1838       O  0.57325038  0.61440537  0.54192293    -0.71700
V1839       V  0.57309644  0.56959110  0.45841972     1.35200
V1840       V  0.57400237  0.57022731  0.54137170     1.35200
C1841       C  0.57236313  0.62925281  0.49839342     0.77800
C1842       C  0.57433974  0.51094753  0.50077191     0.77800
C1843       C  0.51459184  0.56823360  0.50113135     0.77700
C1844       C  0.63288347  0.57000559  0.49891047     0.77700
O1845       O  0.57920907  0.87195357  0.03861363    -0.71500
O1846       O  0.57442050  0.95981826  0.03929502    -0.71700
O1847       O  0.53271944  0.91326788  0.03998205    -0.71600
O1848       O  0.62050346  0.91884359  0.03810657    -0.71600
O1849       O  0.61981916  0.91676003  0.95227354    -0.71500
O1850       O  0.53163295  0.91598660  0.95357069    -0.71500
O1851       O  0.57584422  0.96025264  0.95279235    -0.71500
O1852       O  0.57518320  0.87211403  0.95275748    -0.71700
V1853       V  0.57665714  0.91591877  0.03734606     1.35200
V1854       V  0.57570094  0.91620510  0.95443404     1.35200
C1855       C  0.57695773  0.85682040  0.99570304     0.77800
C1856       C  0.57514659  0.97496134  0.99617711     0.77800
C1857       C  0.51722579  0.91404402  0.99712778     0.77700
C1858       C  0.63532893  0.91981838  0.99491404     0.77700
O1859       O  0.61952752  0.92050848  0.45762349    -0.71500
O1860       O  0.53186032  0.91599042  0.45631898    -0.71700
O1861       O  0.57382630  0.96217551  0.45736864    -0.71600
O1862       O  0.57782919  0.87407399  0.45724860    -0.71600
O1863       O  0.57512587  0.87397135  0.54319566    -0.71500
O1864       O  0.57592340  0.96198067  0.54386127    -0.71500
O1865       O  0.53174721  0.91793697  0.54280039    -0.71500
O1866       O  0.61986018  0.91830485  0.54340986    -0.71700
V1867       V  0.57575239  0.91814642  0.45877487     1.35200
V1868       V  0.57572607  0.91798288  0.54170083     1.35200
C1869       C  0.63489171  0.92117604  0.50051918     0.77800
C1870       C  0.51689687  0.91656262  0.49932339     0.77800
C1871       C  0.57469431  0.97701873  0.50071891     0.77700
C1872       C  0.57627146  0.85881272  0.50028116     0.77700
C1873       C  0.54805977  0.75999157  0.72017476    -0.26000
C1874       C  0.56961969  0.74190130  0.69264768    -0.14100
C1875       C  0.59039557  0.72285593  0.72187008     0.36500
C1876       C  0.58880003  0.72228862  0.77756810    -0.25500
C1877       C  0.56735967  0.74051965  0.80512541    -0.14700
C1878       C  0.54645696  0.75941875  0.77587803     0.37600
N1879       N  0.52308033  0.77788407  0.80104477    -0.89000
H1880       H  0.53226256  0.77467633  0.69795798     0.18700
H1881       H  0.60517847  0.70817814  0.79974877     0.18700
N1882       N  0.61422427  0.70486558  0.69687124    -0.88000
H1883       H  0.52882919  0.80124157  0.79517283     0.36100
H1884       H  0.52212692  0.77399331  0.84200416     0.41200
H1885       H  0.61529359  0.70879809  0.65594872     0.40800
H1886       H  0.60876623  0.68141411  0.70246228     0.35700
C1887       C  0.54770724  0.73884988  0.22004001    -0.26000
C1888       C  0.57545685  0.74467818  0.19307995    -0.14100
C1889       C  0.60263168  0.75192347  0.22250792     0.36500
C1890       C  0.60141088  0.75216956  0.27826796    -0.25500
C1891       C  0.57378795  0.74547972  0.30519627    -0.14700
C1892       C  0.54646102  0.73921688  0.27571616     0.37600
N1893       N  0.51714503  0.73333588  0.30072731    -0.89000
H1894       H  0.52677631  0.73429112  0.19732255     0.18700
H1895       H  0.62225454  0.75744835  0.30087421     0.18700
N1896       N  0.63161179  0.75939261  0.19741834    -0.88000
H1897       H  0.50247660  0.75170679  0.29049572     0.36100
H1898       H  0.51882277  0.73325661  0.34216498     0.41200
H1899       H  0.62980357  0.75902510  0.15598790     0.40800
H1900       H  0.64750181  0.74215445  0.20806720     0.35700
C1901       C  0.73172720  0.59140854  0.77706057    -0.26000
C1902       C  0.74953768  0.56927300  0.80457158    -0.14100
C1903       C  0.76776380  0.54813579  0.77517325     0.36500
C1904       C  0.76724573  0.54938182  0.71947978    -0.25500
C1905       C  0.74902737  0.57112179  0.69199012    -0.14700
C1906       C  0.73140193  0.59281173  0.72127712     0.37600
N1907       N  0.71362057  0.61698788  0.69612281    -0.89000
H1908       H  0.71814519  0.60799730  0.79928588     0.18700
H1909       H  0.78075594  0.53270553  0.69728972     0.18700
N1910       N  0.78629078  0.52448964  0.80004835    -0.88000
H1911       H  0.69018164  0.61222265  0.70284586     0.36100
H1912       H  0.71682187  0.61759827  0.65501565     0.41200
H1913       H  0.78302123  0.52331007  0.84107116     0.40800
H1914       H  0.80958019  0.53003681  0.79353600     0.35700
C1915       C  0.76636326  0.58267287  0.21909801    -0.26000
C1916       C  0.74904548  0.55989359  0.19228614    -0.14100
C1917       C  0.73084937  0.53863096  0.22189299     0.36500
C1918       C  0.73016758  0.54107853  0.27744772    -0.25500
C1919       C  0.74771225  0.56369646  0.30430587    -0.14700
C1920       C  0.76590105  0.58496540  0.27462424     0.37600
N1921       N  0.78345053  0.60962222  0.29905135    -0.89000
H1922       H  0.77996439  0.59924273  0.19645433     0.18700
H1923       H  0.71652831  0.52453188  0.30008401     0.18700
N1924       N  0.71364405  0.51377857  0.19735227    -0.88000
H1925       H  0.80695840  0.60483622  0.29354817     0.36100
H1926       H  0.77970577  0.61093658  0.33995190     0.41200
H1927       H  0.71737064  0.51267173  0.15641164     0.40800
H1928       H  0.69007156  0.01819171  0.20290712     0.35700
C1929       C  0.94499253  0.75554128  0.77947665    -0.26000
C1930       C  0.92283173  0.73742076  0.80590679    -0.14100
C1931       C  0.90032311  0.72091182  0.77593055     0.36500
C1932       C  0.90139923  0.72214456  0.72026010    -0.25500
C1933       C  0.92412072  0.73966693  0.69380370    -0.14700
C1934       C  0.94608839  0.75681302  0.72389903     0.37600
N1935       N  0.97036113  0.77488865  0.69983215    -0.89000
H1936       H  0.96192719  0.76848433  0.80249362     0.18700
H1937       H  0.88425289  0.70937516  0.69729990     0.18700
N1938       N  0.87567313  0.70346853  0.80028953    -0.88000
H1939       H  0.96609138  0.79825095  0.70813244     0.36100
H1940       H  0.97081856  0.77257327  0.65855315     0.41200
H1941       H  0.87574116  0.70569630  0.84162222     0.40800
H1942       H  0.87926563  0.68001411  0.79177908     0.35700
C1943       C  0.94746819  0.71600160  0.28045238    -0.26000
C1944       C  0.92874846  0.73793514  0.30605474    -0.14100
C1945       C  0.90981787  0.75777153  0.27477147     0.36500
C1946       C  0.91181541  0.75649777  0.21919465    -0.25500
C1947       C  0.93148644  0.73545096  0.19354769    -0.14700
C1948       C  0.94951771  0.71471508  0.22479901     0.37600
N1949       N  0.96988852  0.69204690  0.20183597    -0.89000
H1950       H  0.96127605  0.70009988  0.30418190     0.18700
H1951       H  0.89730264  0.77180515  0.19555033     0.18700
N1952       N  0.88777568  0.77885244  0.29754554    -0.88000
H1953       H  0.99190921  0.69509603  0.21855326     0.36100
H1954       H  0.97269242  0.69565402  0.16109486     0.41200
H1955       H  0.88641959  0.77642179  0.33874652     0.40800
H1956       H  0.86583147  0.77267353  0.28305441     0.35700
C1957       C  0.73337402  0.88784387  0.77853303    -0.26000
C1958       C  0.75224861  0.90936422  0.80539817    -0.14100
C1959       C  0.77139843  0.92969366  0.77624062     0.36500
C1960       C  0.77034624  0.92903867  0.72047837    -0.25500
C1961       C  0.75113541  0.90784118  0.69351888    -0.14700
C1962       C  0.73279685  0.88672273  0.72271058     0.37600
N1963       N  0.71350489  0.86453008  0.69542911    -0.89000
H1964       H  0.71898915  0.87205210  0.80132937     0.18700
H1965       H  0.78452733  0.94507430  0.69778659     0.18700
N1966       N  0.79188183  0.95073815  0.80357446    -0.88000
H1967       H  0.70125759  0.85089993  0.72271782     0.36100
H1968       H  0.72808537  0.84952115  0.67472762     0.41200
H1969       H  0.77818479  0.96582757  0.82574791     0.40800
H1970       H  0.80433568  0.96422868  0.77636733     0.35700
C1971       C  0.76374848  0.94721830  0.22013213    -0.26000
C1972       C  0.74812252  0.92308924  0.19363488    -0.14100
C1973       C  0.73231613  0.90031209  0.22330598     0.36500
C1974       C  0.73261077  0.90170845  0.27900182    -0.25500
C1975       C  0.74863418  0.92550806  0.30558055    -0.14700
C1976       C  0.76426619  0.94842620  0.27595343     0.37600
N1977       N  0.78085735  0.97271325  0.30260084    -0.87400
H1978       H  0.77590193  0.96483822  0.19739361     0.18700
H1979       H  0.72069325  0.88391105  0.30169400     0.18700
N1980       N  0.71642894  0.87545450  0.19681789    -0.88000
H1981       H  0.77192108  0.99384812  0.28927566     0.36100
H1982       H  0.80405347  0.97163492  0.29095330     0.41200
H1983       H  0.69314822  0.87604703  0.20810209     0.40800
H1984       H  0.72585791  0.85450030  0.21025814     0.35700
loop_ 
_geom_bond_atom_site_label_1 
_geom_bond_atom_site_label_2 
_geom_bond_distance 
_geom_bond_site_symmetry_2 
_ccdc_geom_bond_type 
N1            C6   1.357       .  A
N1            C5   1.354       .  A
N1           H33   1.040       .  S
N2            C9   1.352       .  A
N2           C10   1.355       .  A
N3            C8   1.354       .  A
N3            C7   1.357       .  A
N3           H34   1.041       .  S
N4           C11   1.352       .  A
N4           C12   1.349       .  A
C5           C13   1.385       .  A
C5           C21   1.413       .  A
C6           C22   1.423   1_554  A
C6           C14   1.390       .  A
C7           C15   1.389       .  A
C7           C24   1.421   1_556  A
C8           C23   1.412       .  A
C8           C16   1.384       .  A
C9           C21   1.413       .  A
C9           C17   1.382       .  A
C10          C24   1.425       .  A
C10          C18   1.391       .  A
C11          C19   1.389       .  A
C11          C22   1.417       .  A
C12          C20   1.384       .  A
C12          C23   1.410       .  A
C13          C14   1.371       .  A
C13          H25   1.082       .  S
C14          H26   1.081       .  S
C15          C16   1.371       .  A
C15          H27   1.080       .  S
C16          H28   1.083       .  S
C17          C18   1.367       .  A
C17          H29   1.082       .  S
C18          H30   1.078       .  S
C19          C20   1.369       .  A
C19          H31   1.080       .  S
C20          H32   1.082       .  S
C21         C484   1.487       .  S
C22         C370   1.505       .  S
C23         C470   1.486       .  S
C24         C283   1.508       .  S
N35          C40   1.358       .  A
N35          C39   1.355       .  A
N35          H67   1.040       .  S
N36          C43   1.352       .  A
N36          C44   1.354       .  A
N37          C42   1.354       .  A
N37          C41   1.357       .  A
N37          H68   1.041       .  S
N38          C45   1.354       .  A
N38          C46   1.351       .  A
C39          C47   1.384       .  A
C39          C55   1.413       .  A
C40          C56   1.424       .  A
C40          C48   1.390       .  A
C41          C49   1.389       .  A
C41          C58   1.419       .  A
C42          C57   1.413       .  A
C42          C50   1.385       .  A
C43          C55   1.410       .  A
C43          C51   1.382       .  A
C44          C58   1.423       .  A
C44          C52   1.391       .  A
C45          C53   1.391       .  A
C45          C56   1.421       .  A
C46          C54   1.383       .  A
C46          C57   1.410       .  A
C47          C48   1.368       .  A
C47          H59   1.083       .  S
C48          H60   1.080       .  S
C49          C50   1.369       .  A
C49          H61   1.081       .  S
C50          H62   1.082       .  S
C51          C52   1.367       .  A
C51          H63   1.083       .  S
C52          H64   1.079       .  S
C53          C54   1.366       .  A
C53          H65   1.079       .  S
C54          H66   1.083       .  S
C55         C487   1.488       .  S
C56         C300   1.507       .  S
C57         C473   1.488       .  S
C58         C381   1.505       .  S
N69          C74   1.352       .  A
N69          C73   1.354       .  A
N69         H101   1.043       .  S
N70          C77   1.350       .  A
N70          C78   1.349       .  A
N71          C76   1.353       .  A
N71          C75   1.350       .  A
N71         H102   1.043       .  S
N72          C79   1.350       .  A
N72          C80   1.352       .  A
C73          C81   1.390       .  A
C73          C89   1.421   1_554  A
C74          C90   1.413       .  A
C74          C82   1.384       .  A
C75          C83   1.383       .  A
C75          C92   1.407       .  A
C76          C91   1.418   1_556  A
C76          C84   1.390       .  A
C77          C89   1.417       .  A
C77          C85   1.390       .  A
C78          C92   1.407       .  A
C78          C86   1.383       .  A
C79          C87   1.384       .  A
C79          C90   1.411       .  A
C80          C88   1.389       .  A
C80          C91   1.418       .  A
C81          C82   1.377       .  A
C81          H93   1.081       .  S
C82          H94   1.082       .  S
C83          C84   1.376       .  A
C83          H95   1.083       .  S
C84          H96   1.080       .  S
C85          C86   1.376       .  A
C85          H97   1.081       .  S
C86          H98   1.083       .  S
C87          C88   1.375       .  A
C87          H99   1.083       .  S
C88         H100   1.081       .  S
C89         C314   1.495       .  S
C90         C459   1.493       .  S
C91         C286   1.497       .  S
C92         C442   1.484       .  S
N103        C108   1.354       .  A
N103        C107   1.351       .  A
N103        H135   1.042       .  S
N104        C111   1.348       .  A
N104        C112   1.350       .  A
N105        C110   1.351       .  A
N105        C109   1.354       .  A
N105        H136   1.043       .  S
N106        C113   1.352       .  A
N106        C114   1.350       .  A
C107        C115   1.383       .  A
C107        C123   1.410       .  A
C108        C124   1.422       .  A
C108        C116   1.391       .  A
C109        C117   1.389       .  A
C109        C126   1.417       .  A
C110        C125   1.410       .  A
C110        C118   1.385       .  A
C111        C123   1.406       .  A
C111        C119   1.384       .  A
C112        C126   1.414       .  A
C112        C120   1.389       .  A
C113        C121   1.390       .  A
C113        C124   1.421       .  A
C114        C122   1.384       .  A
C114        C125   1.412       .  A
C115        C116   1.377       .  A
C115        H127   1.082       .  S
C116        H128   1.081       .  S
C117        C118   1.376       .  A
C117        H129   1.081       .  S
C118        H130   1.082       .  S
C119        C120   1.374       .  A
C119        H131   1.083       .  S
C120        H132   1.081       .  S
C121        C122   1.378       .  A
C121        H133   1.081       .  S
C122        H134   1.082       .  S
C123        C445   1.485       .  S
C124        C297   1.499       .  S
C125        C456   1.492       .  S
C126        C325   1.493       .  S
N137        C142   1.355       .  A
N137        C141   1.351       .  A
N137        H169   1.043       .  S
N138        C145   1.350       .  A
N138        C146   1.352       .  A
N139        C144   1.352       .  A
N139        C143   1.354       .  A
N139        H170   1.042       .  S
N140        C147   1.354       .  A
N140        C148   1.351       .  A
C141        C149   1.384       .  A
C141        C157   1.410       .  A
C142        C158   1.419   1_554  A
C142        C150   1.390       .  A
C143        C151   1.390       .  A
C143        C160   1.421       .  A
C144        C159   1.411       .  A
C144        C152   1.384       .  A
C145        C157   1.408       .  A
C145        C153   1.383       .  A
C146        C160   1.418   1_554  A
C146        C154   1.390       .  A
C147        C155   1.390       .  A
C147        C158   1.422       .  A
C148        C156   1.383       .  A
C148        C159   1.410       .  A
C149        C150   1.376       .  A
C149        H161   1.082       .  S
C150        H162   1.081       .  S
C151        C152   1.378       .  A
C151        H163   1.081       .  S
C152        H164   1.082       .  S
C153        C154   1.375       .  A
C153        H165   1.083       .  S
C154        H166   1.081       .  S
C155        C156   1.374       .  A
C155        H167   1.080       .  S
C156        H168   1.082       .  S
C157        C428   1.485       .  S
C158        C339   1.502       .  S
C159        C414   1.492       .  S
C160        C311   1.497       .  S
N171        C176   1.351       .  A
N171        C175   1.354       .  A
N171        H203   1.042       .  S
N172        C179   1.353       .  A
N172        C180   1.349       .  A
N173        C178   1.356       .  A
N173        C177   1.352       .  A
N173        H204   1.042       .  S
N174        C181   1.351       .  A
N174        C182   1.353       .  A
C175        C183   1.390       .  A
C175        C191   1.419       .  A
C176        C192   1.409       .  A
C176        C184   1.384       .  A
C177        C185   1.384       .  A
C177        C194   1.412       .  A
C178        C193   1.423       .  A
C178        C186   1.391       .  A
C179        C191   1.417       .  A
C179        C187   1.389       .  A
C180        C194   1.410       .  A
C180        C188   1.384       .  A
C181        C189   1.382       .  A
C181        C192   1.410       .  A
C182        C190   1.391       .  A
C182        C193   1.422       .  A
C183        C184   1.377       .  A
C183        H195   1.081       .  S
C184        H196   1.082       .  S
C185        C186   1.377       .  A
C185        H197   1.082       .  S
C186        H198   1.081       .  S
C187        C188   1.373       .  A
C187        H199   1.081       .  S
C188        H200   1.081       .  S
C189        C190   1.374       .  A
C189        H201   1.082       .  S
C190        H202   1.080       .  S
C191        C328   1.496       .  S
C192        C417   1.490       .  S
C193        C356   1.504       .  S
C194        C431   1.487       .  S
N205        C210   1.353       .  A
N205        C209   1.354       .  A
N205        H237   1.042       .  S
N206        C213   1.354       .  A
N206        C214   1.351       .  A
N207        C212   1.353       .  A
N207        C211   1.351       .  A
N207        H238   1.042       .  S
N208        C215   1.350       .  A
N208        C216   1.352       .  A
C209        C217   1.391       .  A
C209        C225   1.423   1_556  A
C210        C226   1.412       .  A
C210        C218   1.383       .  A
C211        C219   1.384       .  A
C211        C228   1.408       .  A
C212        C227   1.420   1_554  A
C212        C220   1.391       .  A
C213        C225   1.422       .  A
C213        C221   1.391       .  A
C214        C228   1.410       .  A
C214        C222   1.382       .  A
C215        C223   1.383       .  A
C215        C226   1.409       .  A
C216        C224   1.389       .  A
C216        C227   1.417       .  A
C217        C218   1.377       .  A
C217        H229   1.081       .  S
C218        H230   1.083       .  S
C219        C220   1.376       .  A
C219        H231   1.082       .  S
C220        H232   1.081       .  S
C221        C222   1.375       .  A
C221        H233   1.080       .  S
C222        H234   1.082       .  S
C223        C224   1.374       .  A
C223        H235   1.082       .  S
C224        H236   1.080       .  S
C225        C342   1.501       .  S
C226        C389   1.491       .  S
C227        C367   1.497       .  S
C228        C400   1.485       .  S
N239        C244   1.350       .  A
N239        C243   1.353       .  A
N239        H271   1.043       .  S
N240        C247   1.352       .  A
N240        C248   1.350       .  A
N241        C246   1.354       .  A
N241        C245   1.351       .  A
N241        H272   1.042       .  S
N242        C249   1.350       .  A
N242        C250   1.353       .  A
C243        C251   1.390       .  A
C243        C259   1.418       .  A
C244        C260   1.408       .  A
C244        C252   1.384       .  A
C245        C253   1.384       .  A
C245        C262   1.411       .  A
C246        C261   1.421       .  A
C246        C254   1.390       .  A
C247        C259   1.419       .  A
C247        C255   1.390       .  A
C248        C262   1.409       .  A
C248        C256   1.383       .  A
C249        C257   1.382       .  A
C249        C260   1.407       .  A
C250        C258   1.391       .  A
C250        C261   1.421       .  A
C251        C252   1.377       .  A
C251        H263   1.081       .  S
C252        H264   1.082       .  S
C253        C254   1.379       .  A
C253        H265   1.083       .  S
C254        H266   1.081       .  S
C255        C256   1.375       .  A
C255        H267   1.081       .  S
C256        H268   1.082       .  S
C257        C258   1.374       .  A
C257        H269   1.082       .  S
C258        H270   1.080       .  S
C259        C384   1.496       .  S
C260        C403   1.483       .  S
C261        C353   1.499       .  S
C262        C386   1.490       .  S
O273        V281   1.895       .  S
O273        C283   1.262       .  A
O274        V281   1.899       .  S
O274        C284   1.264   1_554  A
O275        V281   1.901       .  S
O275        C285   1.264   1_554  A
O276        V281   1.900       .  S
O276        C286   1.264       .  A
O277        V282   1.900       .  S
O277        C286   1.265   1_556  A
O278        V282   1.901       .  S
O278        C285   1.264       .  A
O279        V282   1.900       .  S
O279        C284   1.264       .  A
O280        V282   1.906       .  S
O280        C283   1.267   1_556  A
V281        V282   2.083   1_554  T
C284       C1361   1.466       .  S
C285        C809   1.468       .  S
O287        V295   1.903       .  S
O287        C297   1.265       .  A
O288        V295   1.902       .  S
O288        C298   1.264       .  A
O289        V295   1.900       .  S
O289        C299   1.264       .  A
O290        V295   1.897       .  S
O290        C300   1.264       .  A
O291        V296   1.898       .  S
O291        C300   1.264       .  A
O292        V296   1.892       .  S
O292        C299   1.262       .  A
O293        V296   1.902       .  S
O293        C298   1.265       .  A
O294        V296   1.902       .  S
O294        C297   1.266       .  A
V295        V296   2.083       .  T
C298        C822   1.469       .  S
C299       C1374   1.460       .  S
O301        V309   1.901       .  S
O301        C311   1.265       .  A
O302        V309   1.904       .  S
O302        C312   1.265       .  A
O303        V309   1.900       .  S
O303        C313   1.264       .  A
O304        V309   1.901       .  S
O304        C314   1.265       .  A
O305        V310   1.896       .  S
O305        C314   1.264   1_554  A
O306        V310   1.903       .  S
O306        C313   1.265   1_554  A
O307        V310   1.898       .  S
O307        C312   1.264   1_554  A
O308        V310   1.902       .  S
O308        C311   1.266   1_554  A
V309        V310   2.082   1_556  T
C312       C1332   1.468       .  S
C313        C781   1.468   1_545  S
O315        V323   1.900       .  S
O315        C325   1.265       .  A
O316        V323   1.899       .  S
O316        C326   1.264       .  A
O317        V323   1.905       .  S
O317        C327   1.265       .  A
O318        V323   1.900       .  S
O318        C328   1.265       .  A
O319        V324   1.900       .  S
O319        C328   1.265       .  A
O320        V324   1.895       .  S
O320        C327   1.263       .  A
O321        V324   1.905       .  S
O321        C326   1.266       .  A
O322        V324   1.897       .  S
O322        C325   1.264       .  A
V323        V324   2.082       .  T
C326        C794   1.469   1_545  S
C327       C1347   1.465       .  S
O329        V337   1.906       .  S
O329        C339   1.267   1_554  A
O330        V337   1.901       .  S
O330        C340   1.265   1_554  A
O331        V337   1.891       .  S
O331        C341   1.262   1_554  A
O332        V337   1.903       .  S
O332        C342   1.265       .  A
O333        V338   1.899       .  S
O333        C342   1.265   1_556  A
O334        V338   1.900       .  S
O334        C341   1.264       .  A
O335        V338   1.901       .  S
O335        C340   1.264       .  A
O336        V338   1.896       .  S
O336        C339   1.263       .  A
V337        V338   2.084   1_554  T
C340       C1304   1.468   1_455  S
C341        C864   1.460   1_545  S
O343        V351   1.898       .  S
O343        C353   1.264       .  A
O344        V351   1.891       .  S
O344        C354   1.261       .  A
O345        V351   1.897       .  S
O345        C355   1.264       .  A
O346        V351   1.905       .  S
O346        C356   1.266       .  A
O347        V352   1.899       .  S
O347        C356   1.264       .  A
O348        V352   1.903       .  S
O348        C355   1.264       .  A
O349        V352   1.903       .  S
O349        C354   1.265       .  A
O350        V352   1.903       .  S
O350        C353   1.266       .  A
V351        V352   2.084       .  T
C354        C879   1.461   1_545  S
C355       C1319   1.465   1_455  S
O357        V365   1.897       .  S
O357        C367   1.264   1_554  A
O358        V365   1.894       .  S
O358        C368   1.263   1_554  A
O359        V365   1.900       .  S
O359        C369   1.264   1_554  A
O360        V365   1.895       .  S
O360        C370   1.263   1_554  A
O361        V366   1.904       .  S
O361        C370   1.266       .  A
O362        V366   1.901       .  S
O362        C369   1.264       .  A
O363        V366   1.897       .  S
O363        C368   1.263       .  A
O364        V366   1.899       .  S
O364        C367   1.264       .  A
V365        V366   2.083   1_554  T
C368        C837   1.460       .  S
C369       C1276   1.466   1_455  S
O371        V379   1.891       .  S
O371        C381   1.262       .  A
O372        V379   1.896       .  S
O372        C382   1.262       .  A
O373        V379   1.899       .  S
O373        C383   1.265       .  A
O374        V379   1.901       .  S
O374        C384   1.265       .  A
O375        V380   1.896       .  S
O375        C384   1.263       .  A
O376        V380   1.896       .  S
O376        C383   1.262       .  A
O377        V380   1.897       .  S
O377        C382   1.264       .  A
O378        V380   1.904       .  S
O378        C381   1.266       .  A
V379        V380   2.083       .  T
C382       C1291   1.460   1_455  S
C383        C850   1.461       .  S
C385        C386   1.402       .  A
C385        C390   1.402       .  A
C385        H392   1.083       .  S
C386        C387   1.417       .  A
C387        C388   1.401       .  A
C387        N394   1.438       .  S
C388        C389   1.403       .  A
C388        H393   1.084       .  S
C389        C390   1.417       .  A
C390        N391   1.437       .  S
N391        H395   1.045       .  S
N391        H396   1.043       .  S
N394        H397   1.043       .  S
N394        H398   1.045       .  S
C399        C400   1.400       .  A
C399        C404   1.400       .  A
C399        H406   1.083       .  S
C400        C401   1.416       .  A
C401        C402   1.402       .  A
C401        N408   1.438       .  S
C402        C403   1.402       .  A
C402        H407   1.084       .  S
C403        C404   1.413       .  A
C404        N405   1.437       .  S
N405        H409   1.045       .  S
N405        H410   1.043       .  S
N408        H411   1.043       .  S
N408        H412   1.045       .  S
C413        C414   1.404       .  A
C413        C418   1.402       .  A
C413        H420   1.084       .  S
C414        C415   1.417       .  A
C415        C416   1.400       .  A
C415        N422   1.436       .  S
C416        C417   1.402       .  A
C416        H421   1.084       .  S
C417        C418   1.417       .  A
C418        N419   1.438       .  S
N419        H423   1.045       .  S
N419        H424   1.043       .  S
N422        H425   1.042       .  S
N422        H426   1.045       .  S
C427        C428   1.402       .  A
C427        C432   1.399       .  A
C427        H434   1.084       .  S
C428        C429   1.416       .  A
C429        C430   1.400       .  A
C429        N436   1.438       .  S
C430        C431   1.403       .  A
C430        H435   1.084       .  S
C431        C432   1.417       .  A
C432        N433   1.438       .  S
N433        H437   1.046       .  S
N433        H438   1.043       .  S
N436        H439   1.043       .  S
N436        H936   1.045       .  S
H440        N932   1.045       .  S
C441        C442   1.401       .  A
C441        C446   1.398       .  A
C441        H448   1.083       .  S
C442        C443   1.415       .  A
C443        C444   1.400       .  A
C443        N450   1.438       .  S
C444        C445   1.404       .  A
C444        H449   1.084       .  S
C445        C446   1.415       .  A
C446        N447   1.437       .  S
N447        H451   1.045       .  S
N447        H452   1.042       .  S
N450        H453   1.043       .  S
N450        H454   1.045       .  S
C455        C456   1.405       .  A
C455        C460   1.403       .  A
C455        H462   1.084       .  S
C456        C457   1.417       .  A
C457        C458   1.401       .  A
C457        N464   1.439       .  S
C458        C459   1.405       .  A
C458        H463   1.084       .  S
C459        C460   1.419       .  A
C460        N461   1.440       .  S
N461        H465   1.044       .  S
N461        H466   1.042       .  S
N464        H467   1.042       .  S
N464        H468   1.046       .  S
C469        C470   1.403       .  A
C469        C474   1.403       .  A
C469        H476   1.084       .  S
C470        C471   1.408       .  A
C471        C472   1.402       .  A
C471        N478   1.436       .  S
C472        C473   1.403       .  A
C472        H477   1.084       .  S
C473        C474   1.410       .  A
C474        N475   1.437       .  S
N475        H479   1.046       .  S
N475        H480   1.045       .  S
N478        H481   1.044       .  S
N478        H482   1.045       .  S
C483        C484   1.404       .  A
C483        C488   1.403       .  A
C483        H490   1.084       .  S
C484        C485   1.407       .  A
C485        C486   1.401       .  A
C485        N492   1.432       .  S
C486        C487   1.402       .  A
C486        H491   1.084       .  S
C487        C488   1.407       .  A
C488        N489   1.430       .  S
N489        H493   1.043       .  S
N489        H494   1.045       .  S
N492        H495   1.046       .  S
N492        H496   1.046       .  S
N497        C502   1.357       .  A
N497        C501   1.354       .  A
N497        H529   1.040       .  S
N498        C505   1.352       .  A
N498        C506   1.355       .  A
N499        C504   1.354       .  A
N499        C503   1.357       .  A
N499        H530   1.041       .  S
N500        C507   1.352       .  A
N500        C508   1.349       .  A
C501        C509   1.385       .  A
C501        C517   1.413       .  A
C502        C518   1.423   1_554  A
C502        C510   1.390       .  A
C503        C511   1.389       .  A
C503        C520   1.421   1_556  A
C504        C519   1.412       .  A
C504        C512   1.384       .  A
C505        C517   1.413       .  A
C505        C513   1.382       .  A
C506        C520   1.425       .  A
C506        C514   1.391       .  A
C507        C515   1.389       .  A
C507        C518   1.417       .  A
C508        C516   1.384       .  A
C508        C519   1.410       .  A
C509        C510   1.371       .  A
C509        H521   1.082       .  S
C510        H522   1.081       .  S
C511        C512   1.371       .  A
C511        H523   1.080       .  S
C512        H524   1.083       .  S
C513        C514   1.367       .  A
C513        H525   1.082       .  S
C514        H526   1.078       .  S
C515        C516   1.369       .  A
C515        H527   1.080       .  S
C516        H528   1.082       .  S
C517        C980   1.487       .  S
C518        C866   1.505       .  S
C519        C966   1.486       .  S
C520        C779   1.508       .  S
N531        C536   1.358       .  A
N531        C535   1.355       .  A
N531        H563   1.040       .  S
N532        C539   1.352       .  A
N532        C540   1.354       .  A
N533        C538   1.354       .  A
N533        C537   1.357       .  A
N533        H564   1.041       .  S
N534        C541   1.354       .  A
N534        C542   1.351       .  A
C535        C543   1.384       .  A
C535        C551   1.413       .  A
C536        C552   1.424       .  A
C536        C544   1.390       .  A
C537        C545   1.389       .  A
C537        C554   1.419       .  A
C538        C553   1.413       .  A
C538        C546   1.385       .  A
C539        C551   1.410       .  A
C539        C547   1.382       .  A
C540        C554   1.423       .  A
C540        C548   1.391       .  A
C541        C549   1.391       .  A
C541        C552   1.421       .  A
C542        C550   1.383       .  A
C542        C553   1.410       .  A
C543        C544   1.368       .  A
C543        H555   1.083       .  S
C544        H556   1.080       .  S
C545        C546   1.369       .  A
C545        H557   1.081       .  S
C546        H558   1.082       .  S
C547        C548   1.367       .  A
C547        H559   1.083       .  S
C548        H560   1.079       .  S
C549        C550   1.366       .  A
C549        H561   1.079       .  S
C550        H562   1.083       .  S
C551        C983   1.488       .  S
C552        C796   1.507       .  S
C553        C969   1.488       .  S
C554        C877   1.505       .  S
N565        C570   1.352       .  A
N565        C569   1.354       .  A
N565        H597   1.043       .  S
N566        C573   1.350       .  A
N566        C574   1.349       .  A
N567        C572   1.353       .  A
N567        C571   1.350       .  A
N567        H598   1.043       .  S
N568        C575   1.350       .  A
N568        C576   1.352       .  A
C569        C577   1.390       .  A
C569        C585   1.421   1_554  A
C570        C586   1.413       .  A
C570        C578   1.384       .  A
C571        C579   1.383       .  A
C571        C588   1.407       .  A
C572        C587   1.418   1_556  A
C572        C580   1.390       .  A
C573        C585   1.417       .  A
C573        C581   1.390       .  A
C574        C588   1.407       .  A
C574        C582   1.383       .  A
C575        C583   1.384       .  A
C575        C586   1.411       .  A
C576        C584   1.389       .  A
C576        C587   1.418       .  A
C577        C578   1.377       .  A
C577        H589   1.081       .  S
C578        H590   1.082       .  S
C579        C580   1.376       .  A
C579        H591   1.083       .  S
C580        H592   1.080       .  S
C581        C582   1.376       .  A
C581        H593   1.081       .  S
C582        H594   1.083       .  S
C583        C584   1.375       .  A
C583        H595   1.083       .  S
C584        H596   1.081       .  S
C585        C810   1.495       .  S
C586        C955   1.493       .  S
C587        C782   1.497       .  S
C588        C938   1.484       .  S
N599        C604   1.354       .  A
N599        C603   1.351       .  A
N599        H631   1.042       .  S
N600        C607   1.348       .  A
N600        C608   1.350       .  A
N601        C606   1.351       .  A
N601        C605   1.354       .  A
N601        H632   1.043       .  S
N602        C609   1.352       .  A
N602        C610   1.350       .  A
C603        C611   1.383       .  A
C603        C619   1.410       .  A
C604        C620   1.422       .  A
C604        C612   1.391       .  A
C605        C613   1.389       .  A
C605        C622   1.417       .  A
C606        C621   1.410       .  A
C606        C614   1.385       .  A
C607        C619   1.406       .  A
C607        C615   1.384       .  A
C608        C622   1.414       .  A
C608        C616   1.389       .  A
C609        C617   1.390       .  A
C609        C620   1.421       .  A
C610        C618   1.384       .  A
C610        C621   1.412       .  A
C611        C612   1.377       .  A
C611        H623   1.082       .  S
C612        H624   1.081       .  S
C613        C614   1.376       .  A
C613        H625   1.081       .  S
C614        H626   1.082       .  S
C615        C616   1.374       .  A
C615        H627   1.083       .  S
C616        H628   1.081       .  S
C617        C618   1.378       .  A
C617        H629   1.081       .  S
C618        H630   1.082       .  S
C619        C941   1.485       .  S
C620        C793   1.499       .  S
C621        C952   1.492       .  S
C622        C821   1.493       .  S
N633        C638   1.355       .  A
N633        C637   1.351       .  A
N633        H665   1.043       .  S
N634        C641   1.350       .  A
N634        C642   1.352       .  A
N635        C640   1.352       .  A
N635        C639   1.354       .  A
N635        H666   1.042       .  S
N636        C643   1.354       .  A
N636        C644   1.351       .  A
C637        C645   1.384       .  A
C637        C653   1.410       .  A
C638        C654   1.419   1_554  A
C638        C646   1.390       .  A
C639        C647   1.390       .  A
C639        C656   1.421       .  A
C640        C655   1.411       .  A
C640        C648   1.384       .  A
C641        C653   1.408       .  A
C641        C649   1.383       .  A
C642        C656   1.418   1_554  A
C642        C650   1.390       .  A
C643        C651   1.390       .  A
C643        C654   1.422       .  A
C644        C652   1.383       .  A
C644        C655   1.410       .  A
C645        C646   1.376       .  A
C645        H657   1.082       .  S
C646        H658   1.081       .  S
C647        C648   1.378       .  A
C647        H659   1.081       .  S
C648        H660   1.082       .  S
C649        C650   1.375       .  A
C649        H661   1.083       .  S
C650        H662   1.081       .  S
C651        C652   1.374       .  A
C651        H663   1.080       .  S
C652        H664   1.082       .  S
C653        C924   1.485       .  S
C654        C835   1.502       .  S
C655        C910   1.492       .  S
C656        C807   1.497       .  S
N667        C672   1.351       .  A
N667        C671   1.354       .  A
N667        H699   1.042       .  S
N668        C675   1.353       .  A
N668        C676   1.349       .  A
N669        C674   1.356       .  A
N669        C673   1.352       .  A
N669        H700   1.042       .  S
N670        C677   1.351       .  A
N670        C678   1.353       .  A
C671        C679   1.390       .  A
C671        C687   1.419       .  A
C672        C688   1.409       .  A
C672        C680   1.384       .  A
C673        C681   1.384       .  A
C673        C690   1.412       .  A
C674        C689   1.423       .  A
C674        C682   1.391       .  A
C675        C687   1.417       .  A
C675        C683   1.389       .  A
C676        C690   1.410       .  A
C676        C684   1.384       .  A
C677        C685   1.382       .  A
C677        C688   1.410       .  A
C678        C686   1.391       .  A
C678        C689   1.422       .  A
C679        C680   1.377       .  A
C679        H691   1.081       .  S
C680        H692   1.082       .  S
C681        C682   1.377       .  A
C681        H693   1.082       .  S
C682        H694   1.081       .  S
C683        C684   1.373       .  A
C683        H695   1.081       .  S
C684        H696   1.081       .  S
C685        C686   1.374       .  A
C685        H697   1.082       .  S
C686        H698   1.080       .  S
C687        C824   1.496       .  S
C688        C913   1.490       .  S
C689        C852   1.504       .  S
C690        C927   1.487       .  S
N701        C706   1.353       .  A
N701        C705   1.354       .  A
N701        H733   1.042       .  S
N702        C709   1.354       .  A
N702        C710   1.351       .  A
N703        C708   1.353       .  A
N703        C707   1.351       .  A
N703        H734   1.042       .  S
N704        C711   1.350       .  A
N704        C712   1.352       .  A
C705        C713   1.391       .  A
C705        C721   1.423   1_556  A
C706        C722   1.412       .  A
C706        C714   1.383       .  A
C707        C715   1.384       .  A
C707        C724   1.408       .  A
C708        C723   1.420   1_554  A
C708        C716   1.391       .  A
C709        C721   1.422       .  A
C709        C717   1.391       .  A
C710        C724   1.410       .  A
C710        C718   1.382       .  A
C711        C719   1.383       .  A
C711        C722   1.409       .  A
C712        C720   1.389       .  A
C712        C723   1.417       .  A
C713        C714   1.377       .  A
C713        H725   1.081       .  S
C714        H726   1.083       .  S
C715        C716   1.376       .  A
C715        H727   1.082       .  S
C716        H728   1.081       .  S
C717        C718   1.375       .  A
C717        H729   1.080       .  S
C718        H730   1.082       .  S
C719        C720   1.374       .  A
C719        H731   1.082       .  S
C720        H732   1.080       .  S
C721        C838   1.501       .  S
C722        C885   1.491       .  S
C723        C863   1.497       .  S
C724        C896   1.485       .  S
N735        C740   1.350       .  A
N735        C739   1.353       .  A
N735        H767   1.043       .  S
N736        C743   1.352       .  A
N736        C744   1.350       .  A
N737        C742   1.354       .  A
N737        C741   1.351       .  A
N737        H768   1.042       .  S
N738        C745   1.350       .  A
N738        C746   1.353       .  A
C739        C747   1.390       .  A
C739        C755   1.418       .  A
C740        C756   1.408       .  A
C740        C748   1.384       .  A
C741        C749   1.384       .  A
C741        C758   1.411       .  A
C742        C757   1.421       .  A
C742        C750   1.390       .  A
C743        C755   1.419       .  A
C743        C751   1.390       .  A
C744        C758   1.409       .  A
C744        C752   1.383       .  A
C745        C753   1.382       .  A
C745        C756   1.407       .  A
C746        C754   1.391       .  A
C746        C757   1.421       .  A
C747        C748   1.377       .  A
C747        H759   1.081       .  S
C748        H760   1.082       .  S
C749        C750   1.379       .  A
C749        H761   1.083       .  S
C750        H762   1.081       .  S
C751        C752   1.375       .  A
C751        H763   1.081       .  S
C752        H764   1.082       .  S
C753        C754   1.374       .  A
C753        H765   1.082       .  S
C754        H766   1.080       .  S
C755        C880   1.496       .  S
C756        C899   1.483       .  S
C757        C849   1.499       .  S
C758        C882   1.490       .  S
O769        V777   1.895       .  S
O769        C779   1.262       .  A
O770        V777   1.899       .  S
O770        C780   1.264   1_554  A
O771        V777   1.901       .  S
O771        C781   1.264   1_554  A
O772        V777   1.900       .  S
O772        C782   1.264       .  A
O773        V778   1.900       .  S
O773        C782   1.265   1_556  A
O774        V778   1.901       .  S
O774        C781   1.264       .  A
O775        V778   1.900       .  S
O775        C780   1.264       .  A
O776        V778   1.906       .  S
O776        C779   1.267   1_556  A
V777        V778   2.083   1_554  T
C780       C1857   1.466       .  S
O783        V791   1.903       .  S
O783        C793   1.265       .  A
O784        V791   1.902       .  S
O784        C794   1.264       .  A
O785        V791   1.900       .  S
O785        C795   1.264       .  A
O786        V791   1.897       .  S
O786        C796   1.264       .  A
O787        V792   1.898       .  S
O787        C796   1.264       .  A
O788        V792   1.892       .  S
O788        C795   1.262       .  A
O789        V792   1.902       .  S
O789        C794   1.265       .  A
O790        V792   1.902       .  S
O790        C793   1.266       .  A
V791        V792   2.083       .  T
C795       C1870   1.460       .  S
O797        V805   1.901       .  S
O797        C807   1.265       .  A
O798        V805   1.904       .  S
O798        C808   1.265       .  A
O799        V805   1.900       .  S
O799        C809   1.264       .  A
O800        V805   1.901       .  S
O800        C810   1.265       .  A
O801        V806   1.896       .  S
O801        C810   1.264   1_554  A
O802        V806   1.903       .  S
O802        C809   1.265   1_554  A
O803        V806   1.898       .  S
O803        C808   1.264   1_554  A
O804        V806   1.902       .  S
O804        C807   1.266   1_554  A
V805        V806   2.082   1_556  T
C808       C1828   1.468       .  S
O811        V819   1.900       .  S
O811        C821   1.265       .  A
O812        V819   1.899       .  S
O812        C822   1.264       .  A
O813        V819   1.905       .  S
O813        C823   1.265       .  A
O814        V819   1.900       .  S
O814        C824   1.265       .  A
O815        V820   1.900       .  S
O815        C824   1.265       .  A
O816        V820   1.895       .  S
O816        C823   1.263       .  A
O817        V820   1.905       .  S
O817        C822   1.266       .  A
O818        V820   1.897       .  S
O818        C821   1.264       .  A
V819        V820   2.082       .  T
C823       C1843   1.465       .  S
O825        V833   1.906       .  S
O825        C835   1.267   1_554  A
O826        V833   1.901       .  S
O826        C836   1.265   1_554  A
O827        V833   1.891       .  S
O827        C837   1.262   1_554  A
O828        V833   1.903       .  S
O828        C838   1.265       .  A
O829        V834   1.899       .  S
O829        C838   1.265   1_556  A
O830        V834   1.900       .  S
O830        C837   1.264       .  A
O831        V834   1.901       .  S
O831        C836   1.264       .  A
O832        V834   1.897       .  S
O832        C835   1.263       .  A
V833        V834   2.084   1_554  T
C836       C1800   1.468   1_455  S
O839        V847   1.898       .  S
O839        C849   1.264       .  A
O840        V847   1.891       .  S
O840        C850   1.261       .  A
O841        V847   1.897       .  S
O841        C851   1.264       .  A
O842        V847   1.905       .  S
O842        C852   1.266       .  A
O843        V848   1.899       .  S
O843        C852   1.264       .  A
O844        V848   1.903       .  S
O844        C851   1.264       .  A
O845        V848   1.903       .  S
O845        C850   1.265       .  A
O846        V848   1.903       .  S
O846        C849   1.266       .  A
V847        V848   2.084       .  T
C851       C1815   1.465   1_455  S
O853        V861   1.897       .  S
O853        C863   1.264   1_554  A
O854        V861   1.894       .  S
O854        C864   1.263   1_554  A
O855        V861   1.900       .  S
O855        C865   1.264   1_554  A
O856        V861   1.895       .  S
O856        C866   1.263   1_554  A
O857        V862   1.904       .  S
O857        C866   1.266       .  A
O858        V862   1.901       .  S
O858        C865   1.264       .  A
O859        V862   1.897       .  S
O859        C864   1.263       .  A
O860        V862   1.899       .  S
O860        C863   1.264       .  A
V861        V862   2.083   1_554  T
C865       C1772   1.466   1_455  S
O867        V875   1.891       .  S
O867        C877   1.262       .  A
O868        V875   1.896       .  S
O868        C878   1.262       .  A
O869        V875   1.899       .  S
O869        C879   1.265       .  A
O870        V875   1.901       .  S
O870        C880   1.265       .  A
O871        V876   1.896       .  S
O871        C880   1.263       .  A
O872        V876   1.896       .  S
O872        C879   1.262       .  A
O873        V876   1.897       .  S
O873        C878   1.264       .  A
O874        V876   1.904       .  S
O874        C877   1.266       .  A
V875        V876   2.083       .  T
C878       C1787   1.460   1_455  S
C881        C882   1.402       .  A
C881        C886   1.402       .  A
C881        H888   1.083       .  S
C882        C883   1.417       .  A
C883        C884   1.401       .  A
C883        N890   1.438       .  S
C884        C885   1.403       .  A
C884        H889   1.084       .  S
C885        C886   1.417       .  A
C886        N887   1.437       .  S
N887        H891   1.045       .  S
N887        H892   1.043       .  S
N890        H893   1.043       .  S
N890        H894   1.045       .  S
C895        C896   1.400       .  A
C895        C900   1.400       .  A
C895        H902   1.083       .  S
C896        C897   1.416       .  A
C897        C898   1.402       .  A
C897        N904   1.438       .  S
C898        C899   1.402       .  A
C898        H903   1.084       .  S
C899        C900   1.413       .  A
C900        N901   1.437       .  S
N901        H905   1.045       .  S
N901        H906   1.043       .  S
N904        H907   1.043       .  S
N904        H908   1.045       .  S
C909        C910   1.404       .  A
C909        C914   1.402       .  A
C909        H916   1.084       .  S
C910        C911   1.417       .  A
C911        C912   1.400       .  A
C911        N918   1.436       .  S
C912        C913   1.402       .  A
C912        H917   1.084       .  S
C913        C914   1.417       .  A
C914        N915   1.438       .  S
N915        H919   1.045       .  S
N915        H920   1.043       .  S
N918        H921   1.042       .  S
N918        H922   1.045       .  S
C923        C924   1.402       .  A
C923        C928   1.399       .  A
C923        H930   1.084       .  S
C924        C925   1.416       .  A
C925        C926   1.400       .  A
C925        N932   1.438       .  S
C926        C927   1.403       .  A
C926        H931   1.084       .  S
C927        C928   1.417       .  A
C928        N929   1.438       .  S
N929        H933   1.046       .  S
N929        H934   1.043       .  S
N932        H935   1.043       .  S
C937        C938   1.401       .  A
C937        C942   1.398       .  A
C937        H944   1.083       .  S
C938        C939   1.415       .  A
C939        C940   1.400       .  A
C939        N946   1.438       .  S
C940        C941   1.404       .  A
C940        H945   1.084       .  S
C941        C942   1.415       .  A
C942        N943   1.437       .  S
N943        H947   1.045       .  S
N943        H948   1.042       .  S
N946        H949   1.043       .  S
N946        H950   1.045       .  S
C951        C952   1.405       .  A
C951        C956   1.403       .  A
C951        H958   1.084       .  S
C952        C953   1.417       .  A
C953        C954   1.401       .  A
C953        N960   1.439       .  S
C954        C955   1.405       .  A
C954        H959   1.084       .  S
C955        C956   1.419       .  A
C956        N957   1.440       .  S
N957        H961   1.044       .  S
N957        H962   1.042       .  S
N960        H963   1.042       .  S
N960        H964   1.046       .  S
C965        C966   1.403       .  A
C965        C970   1.403       .  A
C965        H972   1.084       .  S
C966        C967   1.408       .  A
C967        C968   1.402       .  A
C967        N974   1.436       .  S
C968        C969   1.403       .  A
C968        H973   1.084       .  S
C969        C970   1.410       .  A
C970        N971   1.437       .  S
N971        H975   1.046       .  S
N971        H976   1.045       .  S
N974        H977   1.044       .  S
N974        H978   1.045       .  S
C979        C980   1.404       .  A
C979        C984   1.403       .  A
C979        H986   1.084       .  S
C980        C981   1.407       .  A
C981        C982   1.401       .  A
C981        N988   1.432       .  S
C982        C983   1.402       .  A
C982        H987   1.084       .  S
C983        C984   1.407       .  A
C984        N985   1.430       .  S
N985        H989   1.043       .  S
N985        H990   1.045       .  S
N988        H991   1.046       .  S
N988        H992   1.046       .  S
N993        C998   1.357       .  A
N993        C997   1.354       .  A
N993       H1025   1.040       .  S
N994       C1001   1.352       .  A
N994       C1002   1.355       .  A
N995       C1000   1.354       .  A
N995        C999   1.357       .  A
N995       H1026   1.041       .  S
N996       C1003   1.352       .  A
N996       C1004   1.349       .  A
C997       C1005   1.385       .  A
C997       C1013   1.413       .  A
C998       C1014   1.423   1_554  A
C998       C1006   1.390       .  A
C999       C1007   1.389       .  A
C999       C1016   1.421   1_556  A
C1000      C1015   1.412       .  A
C1000      C1008   1.384       .  A
C1001      C1013   1.413       .  A
C1001      C1009   1.382       .  A
C1002      C1016   1.425       .  A
C1002      C1010   1.391       .  A
C1003      C1011   1.389       .  A
C1003      C1014   1.417       .  A
C1004      C1012   1.384       .  A
C1004      C1015   1.410       .  A
C1005      C1006   1.371       .  A
C1005      H1017   1.082       .  S
C1006      H1018   1.081       .  S
C1007      C1008   1.371       .  A
C1007      H1019   1.080       .  S
C1008      H1020   1.083       .  S
C1009      C1010   1.367       .  A
C1009      H1021   1.082       .  S
C1010      H1022   1.078       .  S
C1011      C1012   1.369       .  A
C1011      H1023   1.080       .  S
C1012      H1024   1.082       .  S
C1013      C1476   1.487       .  S
C1014      C1362   1.505       .  S
C1015      C1462   1.486       .  S
C1016      C1275   1.508       .  S
N1027      C1032   1.358       .  A
N1027      C1031   1.355       .  A
N1027      H1059   1.040       .  S
N1028      C1035   1.352       .  A
N1028      C1036   1.354       .  A
N1029      C1034   1.354       .  A
N1029      C1033   1.357       .  A
N1029      H1060   1.041       .  S
N1030      C1037   1.354       .  A
N1030      C1038   1.351       .  A
C1031      C1039   1.384       .  A
C1031      C1047   1.413       .  A
C1032      C1048   1.424       .  A
C1032      C1040   1.390       .  A
C1033      C1041   1.389       .  A
C1033      C1050   1.419       .  A
C1034      C1049   1.413       .  A
C1034      C1042   1.385       .  A
C1035      C1047   1.410       .  A
C1035      C1043   1.382       .  A
C1036      C1050   1.423       .  A
C1036      C1044   1.391       .  A
C1037      C1045   1.391       .  A
C1037      C1048   1.421       .  A
C1038      C1046   1.383       .  A
C1038      C1049   1.410       .  A
C1039      C1040   1.368       .  A
C1039      H1051   1.083       .  S
C1040      H1052   1.080       .  S
C1041      C1042   1.369       .  A
C1041      H1053   1.081       .  S
C1042      H1054   1.082       .  S
C1043      C1044   1.367       .  A
C1043      H1055   1.083       .  S
C1044      H1056   1.079       .  S
C1045      C1046   1.366       .  A
C1045      H1057   1.079       .  S
C1046      H1058   1.083       .  S
C1047      C1479   1.488       .  S
C1048      C1292   1.507       .  S
C1049      C1465   1.488       .  S
C1050      C1373   1.505       .  S
N1061      C1066   1.352       .  A
N1061      C1065   1.354       .  A
N1061      H1093   1.043       .  S
N1062      C1069   1.350       .  A
N1062      C1070   1.349       .  A
N1063      C1068   1.353       .  A
N1063      C1067   1.350       .  A
N1063      H1094   1.043       .  S
N1064      C1071   1.350       .  A
N1064      C1072   1.352       .  A
C1065      C1073   1.390       .  A
C1065      C1081   1.421   1_554  A
C1066      C1082   1.413       .  A
C1066      C1074   1.384       .  A
C1067      C1075   1.383       .  A
C1067      C1084   1.407       .  A
C1068      C1083   1.418   1_556  A
C1068      C1076   1.390       .  A
C1069      C1081   1.417       .  A
C1069      C1077   1.390       .  A
C1070      C1084   1.407       .  A
C1070      C1078   1.383       .  A
C1071      C1079   1.384       .  A
C1071      C1082   1.411       .  A
C1072      C1080   1.389       .  A
C1072      C1083   1.418       .  A
C1073      C1074   1.377       .  A
C1073      H1085   1.081       .  S
C1074      H1086   1.082       .  S
C1075      C1076   1.376       .  A
C1075      H1087   1.083       .  S
C1076      H1088   1.080       .  S
C1077      C1078   1.376       .  A
C1077      H1089   1.081       .  S
C1078      H1090   1.083       .  S
C1079      C1080   1.375       .  A
C1079      H1091   1.083       .  S
C1080      H1092   1.081       .  S
C1081      C1306   1.495       .  S
C1082      C1451   1.493       .  S
C1083      C1278   1.497       .  S
C1084      C1434   1.484       .  S
N1095      C1100   1.354       .  A
N1095      C1099   1.351       .  A
N1095      H1127   1.042       .  S
N1096      C1103   1.348       .  A
N1096      C1104   1.350       .  A
N1097      C1102   1.351       .  A
N1097      C1101   1.354       .  A
N1097      H1128   1.043       .  S
N1098      C1105   1.352       .  A
N1098      C1106   1.350       .  A
C1099      C1107   1.383       .  A
C1099      C1115   1.410       .  A
C1100      C1116   1.422       .  A
C1100      C1108   1.391       .  A
C1101      C1109   1.389       .  A
C1101      C1118   1.417       .  A
C1102      C1117   1.410       .  A
C1102      C1110   1.385       .  A
C1103      C1115   1.406       .  A
C1103      C1111   1.384       .  A
C1104      C1118   1.414       .  A
C1104      C1112   1.389       .  A
C1105      C1113   1.390       .  A
C1105      C1116   1.421       .  A
C1106      C1114   1.384       .  A
C1106      C1117   1.412       .  A
C1107      C1108   1.377       .  A
C1107      H1119   1.082       .  S
C1108      H1120   1.081       .  S
C1109      C1110   1.376       .  A
C1109      H1121   1.081       .  S
C1110      H1122   1.082       .  S
C1111      C1112   1.374       .  A
C1111      H1123   1.083       .  S
C1112      H1124   1.081       .  S
C1113      C1114   1.378       .  A
C1113      H1125   1.081       .  S
C1114      H1126   1.082       .  S
C1115      C1437   1.485       .  S
C1116      C1289   1.499       .  S
C1117      C1448   1.492       .  S
C1118      C1317   1.493       .  S
N1129      C1134   1.355       .  A
N1129      C1133   1.351       .  A
N1129      H1161   1.043       .  S
N1130      C1137   1.350       .  A
N1130      C1138   1.352       .  A
N1131      C1136   1.352       .  A
N1131      C1135   1.354       .  A
N1131      H1162   1.042       .  S
N1132      C1139   1.354       .  A
N1132      C1140   1.351       .  A
C1133      C1141   1.384       .  A
C1133      C1149   1.410       .  A
C1134      C1150   1.419   1_554  A
C1134      C1142   1.390       .  A
C1135      C1143   1.390       .  A
C1135      C1152   1.421       .  A
C1136      C1151   1.411       .  A
C1136      C1144   1.384       .  A
C1137      C1149   1.408       .  A
C1137      C1145   1.383       .  A
C1138      C1152   1.418   1_554  A
C1138      C1146   1.390       .  A
C1139      C1147   1.390       .  A
C1139      C1150   1.422       .  A
C1140      C1148   1.383       .  A
C1140      C1151   1.410       .  A
C1141      C1142   1.376       .  A
C1141      H1153   1.082       .  S
C1142      H1154   1.081       .  S
C1143      C1144   1.378       .  A
C1143      H1155   1.081       .  S
C1144      H1156   1.082       .  S
C1145      C1146   1.375       .  A
C1145      H1157   1.083       .  S
C1146      H1158   1.081       .  S
C1147      C1148   1.374       .  A
C1147      H1159   1.080       .  S
C1148      H1160   1.082       .  S
C1149      C1420   1.485       .  S
C1150      C1331   1.502       .  S
C1151      C1406   1.492       .  S
C1152      C1303   1.497       .  S
N1163      C1168   1.351       .  A
N1163      C1167   1.354       .  A
N1163      H1195   1.042       .  S
N1164      C1171   1.353       .  A
N1164      C1172   1.349       .  A
N1165      C1170   1.356       .  A
N1165      C1169   1.352       .  A
N1165      H1196   1.042       .  S
N1166      C1173   1.351       .  A
N1166      C1174   1.353       .  A
C1167      C1175   1.390       .  A
C1167      C1183   1.419       .  A
C1168      C1184   1.409       .  A
C1168      C1176   1.384       .  A
C1169      C1177   1.384       .  A
C1169      C1186   1.412       .  A
C1170      C1185   1.423       .  A
C1170      C1178   1.391       .  A
C1171      C1183   1.417       .  A
C1171      C1179   1.389       .  A
C1172      C1186   1.410       .  A
C1172      C1180   1.384       .  A
C1173      C1181   1.382       .  A
C1173      C1184   1.410       .  A
C1174      C1182   1.391       .  A
C1174      C1185   1.422       .  A
C1175      C1176   1.377       .  A
C1175      H1187   1.081       .  S
C1176      H1188   1.082       .  S
C1177      C1178   1.377       .  A
C1177      H1189   1.082       .  S
C1178      H1190   1.081       .  S
C1179      C1180   1.373       .  A
C1179      H1191   1.081       .  S
C1180      H1192   1.081       .  S
C1181      C1182   1.374       .  A
C1181      H1193   1.082       .  S
C1182      H1194   1.080       .  S
C1183      C1320   1.496       .  S
C1184      C1409   1.490       .  S
C1185      C1348   1.504       .  S
C1186      C1423   1.487       .  S
N1197      C1202   1.353       .  A
N1197      C1201   1.354       .  A
N1197      H1229   1.042       .  S
N1198      C1205   1.354       .  A
N1198      C1206   1.351       .  A
N1199      C1204   1.353       .  A
N1199      C1203   1.351       .  A
N1199      H1230   1.042       .  S
N1200      C1207   1.350       .  A
N1200      C1208   1.352       .  A
C1201      C1209   1.391       .  A
C1201      C1217   1.423   1_556  A
C1202      C1218   1.412       .  A
C1202      C1210   1.383       .  A
C1203      C1211   1.384       .  A
C1203      C1220   1.408       .  A
C1204      C1219   1.420   1_554  A
C1204      C1212   1.391       .  A
C1205      C1217   1.422       .  A
C1205      C1213   1.391       .  A
C1206      C1220   1.410       .  A
C1206      C1214   1.382       .  A
C1207      C1215   1.383       .  A
C1207      C1218   1.409       .  A
C1208      C1216   1.389       .  A
C1208      C1219   1.417       .  A
C1209      C1210   1.377       .  A
C1209      H1221   1.081       .  S
C1210      H1222   1.083       .  S
C1211      C1212   1.376       .  A
C1211      H1223   1.082       .  S
C1212      H1224   1.081       .  S
C1213      C1214   1.375       .  A
C1213      H1225   1.080       .  S
C1214      H1226   1.082       .  S
C1215      C1216   1.374       .  A
C1215      H1227   1.082       .  S
C1216      H1228   1.080       .  S
C1217      C1334   1.501       .  S
C1218      C1381   1.491       .  S
C1219      C1359   1.497       .  S
C1220      C1392   1.485       .  S
N1231      C1236   1.350       .  A
N1231      C1235   1.353       .  A
N1231      H1263   1.043       .  S
N1232      C1239   1.352       .  A
N1232      C1240   1.350       .  A
N1233      C1238   1.354       .  A
N1233      C1237   1.351       .  A
N1233      H1264   1.042       .  S
N1234      C1241   1.350       .  A
N1234      C1242   1.353       .  A
C1235      C1243   1.390       .  A
C1235      C1251   1.418       .  A
C1236      C1252   1.408       .  A
C1236      C1244   1.384       .  A
C1237      C1245   1.384       .  A
C1237      C1254   1.411       .  A
C1238      C1253   1.421       .  A
C1238      C1246   1.390       .  A
C1239      C1251   1.419       .  A
C1239      C1247   1.390       .  A
C1240      C1254   1.409       .  A
C1240      C1248   1.383       .  A
C1241      C1249   1.382       .  A
C1241      C1252   1.407       .  A
C1242      C1250   1.391       .  A
C1242      C1253   1.421       .  A
C1243      C1244   1.377       .  A
C1243      H1255   1.081       .  S
C1244      H1256   1.082       .  S
C1245      C1246   1.379       .  A
C1245      H1257   1.083       .  S
C1246      H1258   1.081       .  S
C1247      C1248   1.375       .  A
C1247      H1259   1.081       .  S
C1248      H1260   1.082       .  S
C1249      C1250   1.374       .  A
C1249      H1261   1.082       .  S
C1250      H1262   1.080       .  S
C1251      C1376   1.496       .  S
C1252      C1395   1.483       .  S
C1253      C1345   1.499       .  S
C1254      C1378   1.490       .  S
O1265      V1273   1.895       .  S
O1265      C1275   1.262       .  A
O1266      V1273   1.899       .  S
O1266      C1276   1.264   1_554  A
O1267      V1273   1.901       .  S
O1267      C1277   1.264   1_554  A
O1268      V1273   1.900       .  S
O1268      C1278   1.264       .  A
O1269      V1274   1.900       .  S
O1269      C1278   1.265   1_556  A
O1270      V1274   1.901       .  S
O1270      C1277   1.264       .  A
O1271      V1274   1.900       .  S
O1271      C1276   1.264       .  A
O1272      V1274   1.906       .  S
O1272      C1275   1.267   1_556  A
V1273      V1274   2.083   1_554  T
C1277      C1801   1.468       .  S
O1279      V1287   1.903       .  S
O1279      C1289   1.265       .  A
O1280      V1287   1.902       .  S
O1280      C1290   1.264       .  A
O1281      V1287   1.900       .  S
O1281      C1291   1.264       .  A
O1282      V1287   1.897       .  S
O1282      C1292   1.264       .  A
O1283      V1288   1.898       .  S
O1283      C1292   1.264       .  A
O1284      V1288   1.892       .  S
O1284      C1291   1.262       .  A
O1285      V1288   1.902       .  S
O1285      C1290   1.265       .  A
O1286      V1288   1.902       .  S
O1286      C1289   1.266       .  A
V1287      V1288   2.083       .  T
C1290      C1814   1.469       .  S
O1293      V1301   1.901       .  S
O1293      C1303   1.265       .  A
O1294      V1301   1.904       .  S
O1294      C1304   1.265       .  A
O1295      V1301   1.900       .  S
O1295      C1305   1.264       .  A
O1296      V1301   1.901       .  S
O1296      C1306   1.265       .  A
O1297      V1302   1.896       .  S
O1297      C1306   1.264   1_554  A
O1298      V1302   1.903       .  S
O1298      C1305   1.265   1_554  A
O1299      V1302   1.898       .  S
O1299      C1304   1.264   1_554  A
O1300      V1302   1.902       .  S
O1300      C1303   1.266   1_554  A
V1301      V1302   2.082   1_556  T
C1305      C1773   1.468   1_545  S
O1307      V1315   1.900       .  S
O1307      C1317   1.265       .  A
O1308      V1315   1.899       .  S
O1308      C1318   1.264       .  A
O1309      V1315   1.905       .  S
O1309      C1319   1.265       .  A
O1310      V1315   1.900       .  S
O1310      C1320   1.265       .  A
O1311      V1316   1.900       .  S
O1311      C1320   1.265       .  A
O1312      V1316   1.895       .  S
O1312      C1319   1.263       .  A
O1313      V1316   1.905       .  S
O1313      C1318   1.266       .  A
O1314      V1316   1.897       .  S
O1314      C1317   1.264       .  A
V1315      V1316   2.082       .  T
C1318      C1786   1.469   1_545  S
O1321      V1329   1.906       .  S
O1321      C1331   1.267   1_554  A
O1322      V1329   1.901       .  S
O1322      C1332   1.265   1_554  A
O1323      V1329   1.891       .  S
O1323      C1333   1.262   1_554  A
O1324      V1329   1.903       .  S
O1324      C1334   1.265       .  A
O1325      V1330   1.899       .  S
O1325      C1334   1.265   1_556  A
O1326      V1330   1.900       .  S
O1326      C1333   1.264       .  A
O1327      V1330   1.901       .  S
O1327      C1332   1.264       .  A
O1328      V1330   1.896       .  S
O1328      C1331   1.263       .  A
V1329      V1330   2.084   1_554  T
C1333      C1856   1.460   1_545  S
O1335      V1343   1.898       .  S
O1335      C1345   1.264       .  A
O1336      V1343   1.891       .  S
O1336      C1346   1.261       .  A
O1337      V1343   1.897       .  S
O1337      C1347   1.264       .  A
O1338      V1343   1.905       .  S
O1338      C1348   1.266       .  A
O1339      V1344   1.899       .  S
O1339      C1348   1.264       .  A
O1340      V1344   1.903       .  S
O1340      C1347   1.264       .  A
O1341      V1344   1.903       .  S
O1341      C1346   1.265       .  A
O1342      V1344   1.903       .  S
O1342      C1345   1.266       .  A
V1343      V1344   2.084       .  T
C1346      C1871   1.461   1_545  S
O1349      V1357   1.897       .  S
O1349      C1359   1.264   1_554  A
O1350      V1357   1.894       .  S
O1350      C1360   1.263   1_554  A
O1351      V1357   1.900       .  S
O1351      C1361   1.264   1_554  A
O1352      V1357   1.895       .  S
O1352      C1362   1.263   1_554  A
O1353      V1358   1.904       .  S
O1353      C1362   1.266       .  A
O1354      V1358   1.901       .  S
O1354      C1361   1.264       .  A
O1355      V1358   1.897       .  S
O1355      C1360   1.263       .  A
O1356      V1358   1.899       .  S
O1356      C1359   1.264       .  A
V1357      V1358   2.083   1_554  T
C1360      C1829   1.460       .  S
O1363      V1371   1.891       .  S
O1363      C1373   1.262       .  A
O1364      V1371   1.896       .  S
O1364      C1374   1.262       .  A
O1365      V1371   1.899       .  S
O1365      C1375   1.265       .  A
O1366      V1371   1.901       .  S
O1366      C1376   1.265       .  A
O1367      V1372   1.896       .  S
O1367      C1376   1.263       .  A
O1368      V1372   1.896       .  S
O1368      C1375   1.262       .  A
O1369      V1372   1.897       .  S
O1369      C1374   1.264       .  A
O1370      V1372   1.904       .  S
O1370      C1373   1.266       .  A
V1371      V1372   2.083       .  T
C1375      C1842   1.461       .  S
C1377      C1378   1.402       .  A
C1377      C1382   1.402       .  A
C1377      H1384   1.083       .  S
C1378      C1379   1.417       .  A
C1379      C1380   1.401       .  A
C1379      N1386   1.438       .  S
C1380      C1381   1.403       .  A
C1380      H1385   1.084       .  S
C1381      C1382   1.417       .  A
C1382      N1383   1.437       .  S
N1383      H1387   1.045       .  S
N1383      H1388   1.043       .  S
N1386      H1389   1.043       .  S
N1386      H1390   1.045       .  S
C1391      C1392   1.400       .  A
C1391      C1396   1.400       .  A
C1391      H1398   1.083       .  S
C1392      C1393   1.416       .  A
C1393      C1394   1.402       .  A
C1393      N1400   1.438       .  S
C1394      C1395   1.402       .  A
C1394      H1399   1.084       .  S
C1395      C1396   1.413       .  A
C1396      N1397   1.437       .  S
N1397      H1401   1.045       .  S
N1397      H1402   1.043       .  S
N1400      H1403   1.043       .  S
N1400      H1404   1.045       .  S
C1405      C1406   1.404       .  A
C1405      C1410   1.402       .  A
C1405      H1412   1.084       .  S
C1406      C1407   1.417       .  A
C1407      C1408   1.400       .  A
C1407      N1414   1.436       .  S
C1408      C1409   1.402       .  A
C1408      H1413   1.084       .  S
C1409      C1410   1.417       .  A
C1410      N1411   1.438       .  S
N1411      H1415   1.045       .  S
N1411      H1416   1.043       .  S
N1414      H1417   1.042       .  S
N1414      H1418   1.045       .  S
C1419      C1420   1.402       .  A
C1419      C1424   1.399       .  A
C1419      H1426   1.084       .  S
C1420      C1421   1.416       .  A
C1421      C1422   1.400       .  A
C1421      N1428   1.438       .  S
C1422      C1423   1.403       .  A
C1422      H1427   1.084       .  S
C1423      C1424   1.417       .  A
C1424      N1425   1.438       .  S
N1425      H1429   1.046       .  S
N1425      H1430   1.043       .  S
N1428      H1431   1.043       .  S
N1428      H1928   1.045       .  S
H1432      N1924   1.045       .  S
C1433      C1434   1.401       .  A
C1433      C1438   1.398       .  A
C1433      H1440   1.083       .  S
C1434      C1435   1.415       .  A
C1435      C1436   1.400       .  A
C1435      N1442   1.438       .  S
C1436      C1437   1.404       .  A
C1436      H1441   1.084       .  S
C1437      C1438   1.415       .  A
C1438      N1439   1.437       .  S
N1439      H1443   1.045       .  S
N1439      H1444   1.042       .  S
N1442      H1445   1.043       .  S
N1442      H1446   1.045       .  S
C1447      C1448   1.405       .  A
C1447      C1452   1.403       .  A
C1447      H1454   1.084       .  S
C1448      C1449   1.417       .  A
C1449      C1450   1.401       .  A
C1449      N1456   1.439       .  S
C1450      C1451   1.405       .  A
C1450      H1455   1.084       .  S
C1451      C1452   1.419       .  A
C1452      N1453   1.440       .  S
N1453      H1457   1.044       .  S
N1453      H1458   1.042       .  S
N1456      H1459   1.042       .  S
N1456      H1460   1.046       .  S
C1461      C1462   1.403       .  A
C1461      C1466   1.403       .  A
C1461      H1468   1.084       .  S
C1462      C1463   1.408       .  A
C1463      C1464   1.402       .  A
C1463      N1470   1.436       .  S
C1464      C1465   1.403       .  A
C1464      H1469   1.084       .  S
C1465      C1466   1.410       .  A
C1466      N1467   1.437       .  S
N1467      H1471   1.046       .  S
N1467      H1472   1.045       .  S
N1470      H1473   1.044       .  S
N1470      H1474   1.045       .  S
C1475      C1476   1.404       .  A
C1475      C1480   1.403       .  A
C1475      H1482   1.084       .  S
C1476      C1477   1.407       .  A
C1477      C1478   1.401       .  A
C1477      N1484   1.432       .  S
C1478      C1479   1.402       .  A
C1478      H1483   1.084       .  S
C1479      C1480   1.407       .  A
C1480      N1481   1.430       .  S
N1481      H1485   1.043       .  S
N1481      H1486   1.045       .  S
N1484      H1487   1.046       .  S
N1484      H1488   1.046       .  S
N1489      C1494   1.357       .  A
N1489      C1493   1.354       .  A
N1489      H1521   1.040       .  S
N1490      C1497   1.352       .  A
N1490      C1498   1.355       .  A
N1491      C1496   1.354       .  A
N1491      C1495   1.357       .  A
N1491      H1522   1.041       .  S
N1492      C1499   1.352       .  A
N1492      C1500   1.349       .  A
C1493      C1501   1.385       .  A
C1493      C1509   1.413       .  A
C1494      C1510   1.423   1_554  A
C1494      C1502   1.390       .  A
C1495      C1503   1.389       .  A
C1495      C1512   1.421   1_556  A
C1496      C1511   1.412       .  A
C1496      C1504   1.384       .  A
C1497      C1509   1.413       .  A
C1497      C1505   1.382       .  A
C1498      C1512   1.425       .  A
C1498      C1506   1.391       .  A
C1499      C1507   1.389       .  A
C1499      C1510   1.417       .  A
C1500      C1508   1.384       .  A
C1500      C1511   1.410       .  A
C1501      C1502   1.371       .  A
C1501      H1513   1.082       .  S
C1502      H1514   1.081       .  S
C1503      C1504   1.371       .  A
C1503      H1515   1.080       .  S
C1504      H1516   1.083       .  S
C1505      C1506   1.367       .  A
C1505      H1517   1.082       .  S
C1506      H1518   1.078       .  S
C1507      C1508   1.369       .  A
C1507      H1519   1.080       .  S
C1508      H1520   1.082       .  S
C1509      C1972   1.487       .  S
C1510      C1858   1.505       .  S
C1511      C1958   1.486       .  S
C1512      C1771   1.508       .  S
N1523      C1528   1.358       .  A
N1523      C1527   1.355       .  A
N1523      H1555   1.040       .  S
N1524      C1531   1.352       .  A
N1524      C1532   1.354       .  A
N1525      C1530   1.354       .  A
N1525      C1529   1.357       .  A
N1525      H1556   1.041       .  S
N1526      C1533   1.354       .  A
N1526      C1534   1.351       .  A
C1527      C1535   1.384       .  A
C1527      C1543   1.413       .  A
C1528      C1544   1.424       .  A
C1528      C1536   1.390       .  A
C1529      C1537   1.389       .  A
C1529      C1546   1.419       .  A
C1530      C1545   1.413       .  A
C1530      C1538   1.385       .  A
C1531      C1543   1.410       .  A
C1531      C1539   1.382       .  A
C1532      C1546   1.423       .  A
C1532      C1540   1.391       .  A
C1533      C1541   1.391       .  A
C1533      C1544   1.421       .  A
C1534      C1542   1.383       .  A
C1534      C1545   1.410       .  A
C1535      C1536   1.368       .  A
C1535      H1547   1.083       .  S
C1536      H1548   1.080       .  S
C1537      C1538   1.369       .  A
C1537      H1549   1.081       .  S
C1538      H1550   1.082       .  S
C1539      C1540   1.367       .  A
C1539      H1551   1.083       .  S
C1540      H1552   1.079       .  S
C1541      C1542   1.366       .  A
C1541      H1553   1.079       .  S
C1542      H1554   1.083       .  S
C1543      C1975   1.488       .  S
C1544      C1788   1.507       .  S
C1545      C1961   1.488       .  S
C1546      C1869   1.505       .  S
N1557      C1562   1.352       .  A
N1557      C1561   1.354       .  A
N1557      H1589   1.043       .  S
N1558      C1565   1.350       .  A
N1558      C1566   1.349       .  A
N1559      C1564   1.353       .  A
N1559      C1563   1.350       .  A
N1559      H1590   1.043       .  S
N1560      C1567   1.350       .  A
N1560      C1568   1.352       .  A
C1561      C1569   1.390       .  A
C1561      C1577   1.421   1_554  A
C1562      C1578   1.413       .  A
C1562      C1570   1.384       .  A
C1563      C1571   1.383       .  A
C1563      C1580   1.407       .  A
C1564      C1579   1.418   1_556  A
C1564      C1572   1.390       .  A
C1565      C1577   1.417       .  A
C1565      C1573   1.390       .  A
C1566      C1580   1.407       .  A
C1566      C1574   1.383       .  A
C1567      C1575   1.384       .  A
C1567      C1578   1.411       .  A
C1568      C1576   1.389       .  A
C1568      C1579   1.418       .  A
C1569      C1570   1.377       .  A
C1569      H1581   1.081       .  S
C1570      H1582   1.082       .  S
C1571      C1572   1.376       .  A
C1571      H1583   1.083       .  S
C1572      H1584   1.080       .  S
C1573      C1574   1.376       .  A
C1573      H1585   1.081       .  S
C1574      H1586   1.083       .  S
C1575      C1576   1.375       .  A
C1575      H1587   1.083       .  S
C1576      H1588   1.081       .  S
C1577      C1802   1.495       .  S
C1578      C1947   1.493       .  S
C1579      C1774   1.497       .  S
C1580      C1930   1.484       .  S
N1591      C1596   1.354       .  A
N1591      C1595   1.351       .  A
N1591      H1623   1.042       .  S
N1592      C1599   1.348       .  A
N1592      C1600   1.350       .  A
N1593      C1598   1.351       .  A
N1593      C1597   1.354       .  A
N1593      H1624   1.043       .  S
N1594      C1601   1.352       .  A
N1594      C1602   1.350       .  A
C1595      C1603   1.383       .  A
C1595      C1611   1.410       .  A
C1596      C1612   1.422       .  A
C1596      C1604   1.391       .  A
C1597      C1605   1.389       .  A
C1597      C1614   1.417       .  A
C1598      C1613   1.410       .  A
C1598      C1606   1.385       .  A
C1599      C1611   1.406       .  A
C1599      C1607   1.384       .  A
C1600      C1614   1.414       .  A
C1600      C1608   1.389       .  A
C1601      C1609   1.390       .  A
C1601      C1612   1.421       .  A
C1602      C1610   1.384       .  A
C1602      C1613   1.412       .  A
C1603      C1604   1.377       .  A
C1603      H1615   1.082       .  S
C1604      H1616   1.081       .  S
C1605      C1606   1.376       .  A
C1605      H1617   1.081       .  S
C1606      H1618   1.082       .  S
C1607      C1608   1.374       .  A
C1607      H1619   1.083       .  S
C1608      H1620   1.081       .  S
C1609      C1610   1.378       .  A
C1609      H1621   1.081       .  S
C1610      H1622   1.082       .  S
C1611      C1933   1.485       .  S
C1612      C1785   1.499       .  S
C1613      C1944   1.492       .  S
C1614      C1813   1.493       .  S
N1625      C1630   1.355       .  A
N1625      C1629   1.351       .  A
N1625      H1657   1.043       .  S
N1626      C1633   1.350       .  A
N1626      C1634   1.352       .  A
N1627      C1632   1.352       .  A
N1627      C1631   1.354       .  A
N1627      H1658   1.042       .  S
N1628      C1635   1.354       .  A
N1628      C1636   1.351       .  A
C1629      C1637   1.384       .  A
C1629      C1645   1.410       .  A
C1630      C1646   1.419   1_554  A
C1630      C1638   1.390       .  A
C1631      C1639   1.390       .  A
C1631      C1648   1.421       .  A
C1632      C1647   1.411       .  A
C1632      C1640   1.384       .  A
C1633      C1645   1.408       .  A
C1633      C1641   1.383       .  A
C1634      C1648   1.418   1_554  A
C1634      C1642   1.390       .  A
C1635      C1643   1.390       .  A
C1635      C1646   1.422       .  A
C1636      C1644   1.383       .  A
C1636      C1647   1.410       .  A
C1637      C1638   1.376       .  A
C1637      H1649   1.082       .  S
C1638      H1650   1.081       .  S
C1639      C1640   1.378       .  A
C1639      H1651   1.081       .  S
C1640      H1652   1.082       .  S
C1641      C1642   1.375       .  A
C1641      H1653   1.083       .  S
C1642      H1654   1.081       .  S
C1643      C1644   1.374       .  A
C1643      H1655   1.080       .  S
C1644      H1656   1.082       .  S
C1645      C1916   1.485       .  S
C1646      C1827   1.502       .  S
C1647      C1902   1.492       .  S
C1648      C1799   1.497       .  S
N1659      C1664   1.351       .  A
N1659      C1663   1.354       .  A
N1659      H1691   1.042       .  S
N1660      C1667   1.353       .  A
N1660      C1668   1.349       .  A
N1661      C1666   1.356       .  A
N1661      C1665   1.352       .  A
N1661      H1692   1.042       .  S
N1662      C1669   1.351       .  A
N1662      C1670   1.353       .  A
C1663      C1671   1.390       .  A
C1663      C1679   1.419       .  A
C1664      C1680   1.409       .  A
C1664      C1672   1.384       .  A
C1665      C1673   1.384       .  A
C1665      C1682   1.412       .  A
C1666      C1681   1.423       .  A
C1666      C1674   1.391       .  A
C1667      C1679   1.417       .  A
C1667      C1675   1.389       .  A
C1668      C1682   1.410       .  A
C1668      C1676   1.384       .  A
C1669      C1677   1.382       .  A
C1669      C1680   1.410       .  A
C1670      C1678   1.391       .  A
C1670      C1681   1.422       .  A
C1671      C1672   1.377       .  A
C1671      H1683   1.081       .  S
C1672      H1684   1.082       .  S
C1673      C1674   1.377       .  A
C1673      H1685   1.082       .  S
C1674      H1686   1.081       .  S
C1675      C1676   1.373       .  A
C1675      H1687   1.081       .  S
C1676      H1688   1.081       .  S
C1677      C1678   1.374       .  A
C1677      H1689   1.082       .  S
C1678      H1690   1.080       .  S
C1679      C1816   1.496       .  S
C1680      C1905   1.490       .  S
C1681      C1844   1.504       .  S
C1682      C1919   1.487       .  S
N1693      C1698   1.353       .  A
N1693      C1697   1.354       .  A
N1693      H1725   1.042       .  S
N1694      C1701   1.354       .  A
N1694      C1702   1.351       .  A
N1695      C1700   1.353       .  A
N1695      C1699   1.351       .  A
N1695      H1726   1.042       .  S
N1696      C1703   1.350       .  A
N1696      C1704   1.352       .  A
C1697      C1705   1.391       .  A
C1697      C1713   1.423   1_556  A
C1698      C1714   1.412       .  A
C1698      C1706   1.383       .  A
C1699      C1707   1.384       .  A
C1699      C1716   1.408       .  A
C1700      C1715   1.420   1_554  A
C1700      C1708   1.391       .  A
C1701      C1713   1.422       .  A
C1701      C1709   1.391       .  A
C1702      C1716   1.410       .  A
C1702      C1710   1.382       .  A
C1703      C1711   1.383       .  A
C1703      C1714   1.409       .  A
C1704      C1712   1.389       .  A
C1704      C1715   1.417       .  A
C1705      C1706   1.377       .  A
C1705      H1717   1.081       .  S
C1706      H1718   1.083       .  S
C1707      C1708   1.376       .  A
C1707      H1719   1.082       .  S
C1708      H1720   1.081       .  S
C1709      C1710   1.375       .  A
C1709      H1721   1.080       .  S
C1710      H1722   1.082       .  S
C1711      C1712   1.374       .  A
C1711      H1723   1.082       .  S
C1712      H1724   1.080       .  S
C1713      C1830   1.501       .  S
C1714      C1877   1.491       .  S
C1715      C1855   1.497       .  S
C1716      C1888   1.485       .  S
N1727      C1732   1.350       .  A
N1727      C1731   1.353       .  A
N1727      H1759   1.043       .  S
N1728      C1735   1.352       .  A
N1728      C1736   1.350       .  A
N1729      C1734   1.354       .  A
N1729      C1733   1.351       .  A
N1729      H1760   1.042       .  S
N1730      C1737   1.350       .  A
N1730      C1738   1.353       .  A
C1731      C1739   1.390       .  A
C1731      C1747   1.418       .  A
C1732      C1748   1.408       .  A
C1732      C1740   1.384       .  A
C1733      C1741   1.384       .  A
C1733      C1750   1.411       .  A
C1734      C1749   1.421       .  A
C1734      C1742   1.390       .  A
C1735      C1747   1.419       .  A
C1735      C1743   1.390       .  A
C1736      C1750   1.409       .  A
C1736      C1744   1.383       .  A
C1737      C1745   1.382       .  A
C1737      C1748   1.407       .  A
C1738      C1746   1.391       .  A
C1738      C1749   1.421       .  A
C1739      C1740   1.377       .  A
C1739      H1751   1.081       .  S
C1740      H1752   1.082       .  S
C1741      C1742   1.379       .  A
C1741      H1753   1.083       .  S
C1742      H1754   1.081       .  S
C1743      C1744   1.375       .  A
C1743      H1755   1.081       .  S
C1744      H1756   1.082       .  S
C1745      C1746   1.374       .  A
C1745      H1757   1.082       .  S
C1746      H1758   1.080       .  S
C1747      C1872   1.496       .  S
C1748      C1891   1.483       .  S
C1749      C1841   1.499       .  S
C1750      C1874   1.490       .  S
O1761      V1769   1.895       .  S
O1761      C1771   1.262       .  A
O1762      V1769   1.899       .  S
O1762      C1772   1.264   1_554  A
O1763      V1769   1.901       .  S
O1763      C1773   1.264   1_554  A
O1764      V1769   1.900       .  S
O1764      C1774   1.264       .  A
O1765      V1770   1.900       .  S
O1765      C1774   1.265   1_556  A
O1766      V1770   1.901       .  S
O1766      C1773   1.264       .  A
O1767      V1770   1.900       .  S
O1767      C1772   1.264       .  A
O1768      V1770   1.906       .  S
O1768      C1771   1.267   1_556  A
V1769      V1770   2.083   1_554  T
O1775      V1783   1.903       .  S
O1775      C1785   1.265       .  A
O1776      V1783   1.902       .  S
O1776      C1786   1.264       .  A
O1777      V1783   1.900       .  S
O1777      C1787   1.264       .  A
O1778      V1783   1.897       .  S
O1778      C1788   1.264       .  A
O1779      V1784   1.898       .  S
O1779      C1788   1.264       .  A
O1780      V1784   1.892       .  S
O1780      C1787   1.262       .  A
O1781      V1784   1.902       .  S
O1781      C1786   1.265       .  A
O1782      V1784   1.902       .  S
O1782      C1785   1.266       .  A
V1783      V1784   2.083       .  T
O1789      V1797   1.901       .  S
O1789      C1799   1.265       .  A
O1790      V1797   1.904       .  S
O1790      C1800   1.265       .  A
O1791      V1797   1.900       .  S
O1791      C1801   1.264       .  A
O1792      V1797   1.901       .  S
O1792      C1802   1.265       .  A
O1793      V1798   1.896       .  S
O1793      C1802   1.264   1_554  A
O1794      V1798   1.903       .  S
O1794      C1801   1.265   1_554  A
O1795      V1798   1.898       .  S
O1795      C1800   1.264   1_554  A
O1796      V1798   1.902       .  S
O1796      C1799   1.266   1_554  A
V1797      V1798   2.082   1_556  T
O1803      V1811   1.900       .  S
O1803      C1813   1.265       .  A
O1804      V1811   1.899       .  S
O1804      C1814   1.264       .  A
O1805      V1811   1.905       .  S
O1805      C1815   1.265       .  A
O1806      V1811   1.900       .  S
O1806      C1816   1.265       .  A
O1807      V1812   1.900       .  S
O1807      C1816   1.265       .  A
O1808      V1812   1.895       .  S
O1808      C1815   1.263       .  A
O1809      V1812   1.905       .  S
O1809      C1814   1.266       .  A
O1810      V1812   1.897       .  S
O1810      C1813   1.264       .  A
V1811      V1812   2.082       .  T
O1817      V1825   1.906       .  S
O1817      C1827   1.267   1_554  A
O1818      V1825   1.901       .  S
O1818      C1828   1.265   1_554  A
O1819      V1825   1.891       .  S
O1819      C1829   1.262   1_554  A
O1820      V1825   1.903       .  S
O1820      C1830   1.265       .  A
O1821      V1826   1.899       .  S
O1821      C1830   1.265   1_556  A
O1822      V1826   1.900       .  S
O1822      C1829   1.264       .  A
O1823      V1826   1.901       .  S
O1823      C1828   1.264       .  A
O1824      V1826   1.896       .  S
O1824      C1827   1.263       .  A
V1825      V1826   2.084   1_554  T
O1831      V1839   1.898       .  S
O1831      C1841   1.264       .  A
O1832      V1839   1.891       .  S
O1832      C1842   1.261       .  A
O1833      V1839   1.897       .  S
O1833      C1843   1.264       .  A
O1834      V1839   1.905       .  S
O1834      C1844   1.266       .  A
O1835      V1840   1.899       .  S
O1835      C1844   1.264       .  A
O1836      V1840   1.903       .  S
O1836      C1843   1.264       .  A
O1837      V1840   1.903       .  S
O1837      C1842   1.265       .  A
O1838      V1840   1.903       .  S
O1838      C1841   1.266       .  A
V1839      V1840   2.084       .  T
O1845      V1853   1.897       .  S
O1845      C1855   1.264   1_554  A
O1846      V1853   1.894       .  S
O1846      C1856   1.263   1_554  A
O1847      V1853   1.900       .  S
O1847      C1857   1.264   1_554  A
O1848      V1853   1.895       .  S
O1848      C1858   1.263   1_554  A
O1849      V1854   1.904       .  S
O1849      C1858   1.266       .  A
O1850      V1854   1.901       .  S
O1850      C1857   1.264       .  A
O1851      V1854   1.897       .  S
O1851      C1856   1.263       .  A
O1852      V1854   1.899       .  S
O1852      C1855   1.264       .  A
V1853      V1854   2.083   1_554  T
O1859      V1867   1.891       .  S
O1859      C1869   1.262       .  A
O1860      V1867   1.896       .  S
O1860      C1870   1.262       .  A
O1861      V1867   1.899       .  S
O1861      C1871   1.265       .  A
O1862      V1867   1.901       .  S
O1862      C1872   1.265       .  A
O1863      V1868   1.896       .  S
O1863      C1872   1.263       .  A
O1864      V1868   1.896       .  S
O1864      C1871   1.262       .  A
O1865      V1868   1.897       .  S
O1865      C1870   1.264       .  A
O1866      V1868   1.904       .  S
O1866      C1869   1.266       .  A
V1867      V1868   2.083       .  T
C1873      C1874   1.402       .  A
C1873      C1878   1.402       .  A
C1873      H1880   1.083       .  S
C1874      C1875   1.417       .  A
C1875      C1876   1.401       .  A
C1875      N1882   1.438       .  S
C1876      C1877   1.403       .  A
C1876      H1881   1.084       .  S
C1877      C1878   1.417       .  A
C1878      N1879   1.437       .  S
N1879      H1883   1.045       .  S
N1879      H1884   1.043       .  S
N1882      H1885   1.043       .  S
N1882      H1886   1.045       .  S
C1887      C1888   1.400       .  A
C1887      C1892   1.400       .  A
C1887      H1894   1.083       .  S
C1888      C1889   1.416       .  A
C1889      C1890   1.402       .  A
C1889      N1896   1.438       .  S
C1890      C1891   1.402       .  A
C1890      H1895   1.084       .  S
C1891      C1892   1.413       .  A
C1892      N1893   1.437       .  S
N1893      H1897   1.045       .  S
N1893      H1898   1.043       .  S
N1896      H1899   1.043       .  S
N1896      H1900   1.045       .  S
C1901      C1902   1.404       .  A
C1901      C1906   1.402       .  A
C1901      H1908   1.084       .  S
C1902      C1903   1.417       .  A
C1903      C1904   1.400       .  A
C1903      N1910   1.436       .  S
C1904      C1905   1.402       .  A
C1904      H1909   1.084       .  S
C1905      C1906   1.417       .  A
C1906      N1907   1.438       .  S
N1907      H1911   1.045       .  S
N1907      H1912   1.043       .  S
N1910      H1913   1.042       .  S
N1910      H1914   1.045       .  S
C1915      C1916   1.402       .  A
C1915      C1920   1.399       .  A
C1915      H1922   1.084       .  S
C1916      C1917   1.416       .  A
C1917      C1918   1.400       .  A
C1917      N1924   1.438       .  S
C1918      C1919   1.403       .  A
C1918      H1923   1.084       .  S
C1919      C1920   1.417       .  A
C1920      N1921   1.438       .  S
N1921      H1925   1.046       .  S
N1921      H1926   1.043       .  S
N1924      H1927   1.043       .  S
C1929      C1930   1.401       .  A
C1929      C1934   1.398       .  A
C1929      H1936   1.083       .  S
C1930      C1931   1.415       .  A
C1931      C1932   1.400       .  A
C1931      N1938   1.438       .  S
C1932      C1933   1.404       .  A
C1932      H1937   1.084       .  S
C1933      C1934   1.415       .  A
C1934      N1935   1.437       .  S
N1935      H1939   1.045       .  S
N1935      H1940   1.042       .  S
N1938      H1941   1.043       .  S
N1938      H1942   1.045       .  S
C1943      C1944   1.405       .  A
C1943      C1948   1.403       .  A
C1943      H1950   1.084       .  S
C1944      C1945   1.417       .  A
C1945      C1946   1.401       .  A
C1945      N1952   1.439       .  S
C1946      C1947   1.405       .  A
C1946      H1951   1.084       .  S
C1947      C1948   1.419       .  A
C1948      N1949   1.440       .  S
N1949      H1953   1.044       .  S
N1949      H1954   1.042       .  S
N1952      H1955   1.042       .  S
N1952      H1956   1.046       .  S
C1957      C1958   1.403       .  A
C1957      C1962   1.403       .  A
C1957      H1964   1.084       .  S
C1958      C1959   1.408       .  A
C1959      C1960   1.402       .  A
C1959      N1966   1.436       .  S
C1960      C1961   1.403       .  A
C1960      H1965   1.084       .  S
C1961      C1962   1.410       .  A
C1962      N1963   1.437       .  S
N1963      H1967   1.046       .  S
N1963      H1968   1.045       .  S
N1966      H1969   1.044       .  S
N1966      H1970   1.045       .  S
C1971      C1972   1.404       .  A
C1971      C1976   1.403       .  A
C1971      H1978   1.084       .  S
C1972      C1973   1.407       .  A
C1973      C1974   1.401       .  A
C1973      N1980   1.432       .  S
C1974      C1975   1.402       .  A
C1974      H1979   1.084       .  S
C1975      C1976   1.407       .  A
C1976      N1977   1.430       .  S
N1977      H1981   1.043       .  S
N1977      H1982   1.045       .  S
N1980      H1983   1.046       .  S
N1980      H1984   1.046       .  S
