geometry optimzed in LAMMPS
_audit_creation_date              2020-12-01 
_audit_creation_method            'lammps2cif' 
_symmetry_space_group_name_H-M    'P1' 
_symmetry_Int_Tables_number       1 
_symmetry_cell_setting            triclinic 
loop_ 
_symmetry_equiv_pos_as_xyz 
  x,y,z 
_cell_length_a                    42.94302268 
_cell_length_b                    42.461797603306394 
_cell_length_c                    104.80779715074577 
_cell_angle_alpha                 90.06923314283767 
_cell_angle_beta                  89.77756355750768 
_cell_angle_gamma                 119.61066180621398 
loop_ 
_atom_site_label 
_atom_site_type_symbol 
_atom_site_fract_x 
_atom_site_fract_y 
_atom_site_fract_z 
_atom_site_charge 
Zn1        Zn  0.16758469  0.33737901  0.36114901     1.49700
Zn2        Zn  0.21722906  0.36033046  0.38549173     1.49400
Zn3        Zn  0.14181270  0.35886897  0.38624781     1.49100
Zn4        Zn  0.14405114  0.28332077  0.38370736     1.49500
O5          O  0.16760446  0.33508213  0.37942882    -1.84000
O6          O  0.21609491  0.35373137  0.35411810    -0.74600
O7          O  0.22817427  0.40575565  0.39542616    -0.74400
O8          O  0.12313072  0.37809862  0.37185230    -0.74000
O9          O  0.25274624  0.37364124  0.37077170    -0.74600
O10         O  0.15138813  0.37081990  0.35530527    -0.74200
O11         O  0.17494540  0.40196509  0.39739222    -0.74800
O12         O  0.10158352  0.27106952  0.39492954    -0.74200
O13         O  0.22410298  0.32726082  0.39757387    -0.75000
O14         O  0.10049643  0.32270228  0.39713208    -0.74400
O15         O  0.17688389  0.27260212  0.39442370    -0.74800
O16         O  0.12462415  0.25000463  0.36809222    -0.74700
O17         O  0.13455663  0.29000582  0.35291666    -0.74500
C18         C  0.24736197  0.36807497  0.35882146     0.77300
C19         C  0.20844054  0.41792040  0.39981593     0.77800
C20         C  0.13188997  0.38260406  0.36005839     0.76700
C21         C  0.08787261  0.28913437  0.39963289     0.77100
C22         C  0.20661516  0.29334258  0.39989377     0.78200
C23         C  0.12099798  0.25733125  0.35657432     0.77300
Zn24       Zn  0.46653463  0.01510680  0.26928647     1.49700
Zn25       Zn  0.49570415  0.49265181  0.24511328     1.49400
Zn26       Zn  0.04425702  0.02322254  0.26988749     1.49100
Zn27       Zn  0.47553621  0.44368695  0.26975260     1.49500
O28         O  0.49540336  0.49368235  0.26357984    -1.84000
O29         O  0.44647768  0.02990500  0.25420966    -0.74600
O30         O  0.04523277  0.02123182  0.23831361    -0.74400
O31         O  0.04931754  0.06451683  0.28094560    -0.74000
O32         O  0.46764664  0.01394350  0.23758057    -0.74600
O33         O  0.99515977  0.05853641  0.28064556    -0.74200
O34         O  0.08009257  0.04168164  0.25540640    -0.74800
O35         O  0.00873035  0.43978216  0.28230202    -0.74200
O36         O  0.47654948  0.44233602  0.23848640    -0.75000
O37         O  0.05643776  0.49469171  0.28197352    -0.74400
O38         O  0.46419240  0.40723009  0.25549744    -0.74800
O39         O  0.43214640  0.43006893  0.28047336    -0.74700
O40         O  0.42770368  0.48001270  0.28107386    -0.74500
C41         C  0.44983576  0.02794954  0.24215669     0.77300
C42         C  0.07603356  0.03871816  0.24333893     0.77800
C43         C  0.02713637  0.07417035  0.28482442     0.76700
C44         C  0.03939622  0.46281485  0.28652341     0.77100
C45         C  0.46591156  0.41132337  0.24341900     0.78200
C46         C  0.41814876  0.44806453  0.28496587     0.77300
C47         C  0.16327747  0.33587207  0.81132887     0.45600
H48         H  0.16023291  0.33659426  0.82182934    -0.03400
C49         C  0.17073496  0.33495058  0.78661927     0.45600
H50         H  0.17398504  0.33450731  0.77609919    -0.03400
C51         C  0.14706045  0.35594277  0.80383457    -0.17100
C52         C  0.20295982  0.35427924  0.80667528    -0.16900
C53         C  0.14475034  0.29700400  0.80546658    -0.17300
C54         C  0.15003231  0.35388520  0.79078937    -0.17200
C55         C  0.20613796  0.35364437  0.79366350    -0.16800
C56         C  0.15042865  0.29740329  0.79249181    -0.17100
C57         C  0.49338853  0.00073129  0.83205299     0.45600
H58         H  0.49066638  0.00077011  0.82152331    -0.03400
C59         C  0.50023418  0.00098032  0.85681892     0.45600
H60         H  0.50335150  0.00091835  0.86734043    -0.03400
C61         C  0.01352941  0.03925220  0.83798511    -0.17100
C62         C  0.45695019  0.48138884  0.83937554    -0.16900
C63         C  0.01431398  0.48177819  0.83676424    -0.17300
C64         C  0.01621569  0.03883302  0.85103021    -0.17200
C65         C  0.46127508  0.48091590  0.85237932    -0.16800
C66         C  0.01784125  0.48263755  0.84977425    -0.17100
C67         C  0.16980235  0.33899380  0.49949364     0.45600
H68         H  0.17024056  0.33873325  0.48891495    -0.03400
C69         C  0.16894464  0.34070993  0.52440724     0.45600
H70         H  0.16912072  0.34155324  0.53499862    -0.03400
C71         C  0.18924387  0.32031653  0.50604079    -0.17100
C72         C  0.18857162  0.37791755  0.50515167    -0.16900
C73         C  0.13126513  0.32050151  0.50548222    -0.17300
C74         C  0.18737736  0.32084735  0.51916747    -0.17200
C75         C  0.18806745  0.37805685  0.51819645    -0.16800
C76         C  0.13161396  0.32116276  0.51864100    -0.17100
C77         C  0.34127937  0.17491569  0.47739781     0.45600
H78         H  0.34448116  0.17528786  0.48791218    -0.03400
C79         C  0.33310610  0.17376198  0.45272211     0.45600
H80         H  0.32854384  0.17243648  0.44231664    -0.03400
C81         C  0.32128971  0.19492585  0.47294799    -0.17100
C82         C  0.37754440  0.19370643  0.46975274    -0.16900
C83         C  0.31891637  0.13593819  0.47161167    -0.17300
C84         C  0.31756535  0.19440747  0.45997288    -0.17200
C85         C  0.37249316  0.19073967  0.45665201    -0.16800
C86         C  0.31543498  0.13613941  0.45857419    -0.17100
Zn87       Zn  0.33894890  0.17380246  0.61533869     1.49700
Zn88       Zn  0.28822667  0.14794844  0.59171108     1.49400
Zn89       Zn  0.36393493  0.22271606  0.59089692     1.49100
Zn90       Zn  0.36268345  0.14586457  0.59184074     1.49500
O91         O  0.33840081  0.17258452  0.59715462    -1.84000
O92         O  0.29101068  0.14420175  0.62277234    -0.74600
O93         O  0.27820535  0.18179194  0.58116960    -0.74400
O94         O  0.38152420  0.26020596  0.60534061    -0.74000
O95         O  0.25286368  0.12792888  0.60676164    -0.74600
O96         O  0.35674782  0.22308294  0.62177461    -0.74200
O97         O  0.33102859  0.23209398  0.58005233    -0.74800
O98         O  0.40413583  0.17725969  0.58047526    -0.74200
O99         O  0.27998798  0.10672469  0.58021352    -0.75000
O100        O  0.40471667  0.22995529  0.57948574    -0.74400
O101        O  0.32976562  0.10280644  0.58127582    -0.74800
O102        O  0.38202581  0.12991448  0.60667157    -0.74700
O103        O  0.36939457  0.15588680  0.62267018    -0.74500
C104        C  0.25910943  0.12838026  0.61867245     0.77300
C105        C  0.29808163  0.21398237  0.57706630     0.77800
C106        C  0.37390161  0.25480440  0.61719474     0.76700
C107        C  0.41709828  0.20936953  0.57621108     0.77100
C108        C  0.29834666  0.09186011  0.57701708     0.78200
C109        C  0.38376601  0.13810024  0.61843958     0.77300
Zn110      Zn  0.45039604  0.48049989  0.70785080     1.49700
Zn111      Zn  0.02770260  0.05234070  0.70695750     1.49400
Zn112      Zn  0.00129681  0.00142766  0.73163869     1.49100
Zn113      Zn  0.02232887  0.47528677  0.70608976     1.49500
O114        O  0.00053135  0.00242053  0.71312965    -1.84000
O115        O  0.44357808  0.01341410  0.69601041    -0.74600
O116        O  0.04523855  0.08797234  0.72162105    -0.74400
O117        O  0.45155697  0.47541711  0.73925448    -0.74000
O118        O  0.49726141  0.06235777  0.69520358    -0.74600
O119        O  0.41570654  0.46483579  0.72276557    -0.74200
O120        O  0.02519390  0.05172677  0.73858575    -0.74800
O121        O  0.03907794  0.45459690  0.72006749    -0.74200
O122        O  0.06882112  0.06054393  0.69541084    -0.75000
O123        O  0.02831561  0.47700470  0.73772442    -0.74400
O124        O  0.06337206  0.00602497  0.69431190    -0.74800
O125        O  0.48783667  0.43577703  0.69462666    -0.74700
O126        O  0.43746295  0.43788470  0.69659694    -0.74500
C127        C  0.46512294  0.04425988  0.69129510     0.77300
C128        C  0.04146636  0.08320600  0.73366423     0.77800
C129        C  0.42022314  0.46328894  0.73471110     0.76700
C130        C  0.04067224  0.45885252  0.73212928     0.77100
C131        C  0.07836752  0.03892807  0.69072672     0.78200
C132        C  0.45554827  0.42491914  0.69146103     0.77300
C133        C  0.32919876  0.16174990  0.19023546     0.45600
H134        H  0.33168487  0.16228722  0.20078547    -0.03400
C135        C  0.32478433  0.16073316  0.16537942     0.45600
H136        H  0.32321554  0.16070043  0.15482415    -0.03400
C137        C  0.34553623  0.14109312  0.18392417    -0.17100
C138        C  0.29058608  0.14366026  0.18539333    -0.16900
C139        C  0.34815960  0.19928661  0.18413328    -0.17300
C140        C  0.34327796  0.13984899  0.17085672    -0.17200
C141        C  0.28774106  0.14357166  0.17226497    -0.16800
C142        C  0.34576863  0.19946050  0.17110555    -0.17100
C143        C  0.49726127  0.99696112  0.12018814     0.45600
H144        H  0.49824646  0.99613609  0.10961697    -0.03400
C145        C  0.49455108  0.99682728  0.14503420     0.45600
H146        H  0.49294943  0.99637309  0.15560399    -0.03400
C147        C  0.47972628  0.01809190  0.12544742    -0.17100
C148        C  0.47620874  0.45927394  0.12597847    -0.16900
C149        C  0.03423582  0.01458687  0.12630942    -0.17300
C150        C  0.47662982  0.01696771  0.13859280    -0.17200
C151        C  0.47505838  0.45849688  0.13901958    -0.16800
C152        C  0.03359010  0.01567386  0.13947082    -0.17100
Zn153      Zn  0.14428864  0.36501276  0.93610481     1.49700
Zn154      Zn  0.16525732  0.33429946  0.91200259     1.49400
Zn155      Zn  0.21335105  0.35295681  0.93653192     1.49100
Zn156      Zn  0.13506292  0.28540298  0.93689472     1.49500
O157        O  0.16446051  0.33455891  0.93045772    -1.84000
O158        O  0.12624222  0.38222177  0.92132761    -0.74600
O159        O  0.21526541  0.35649352  0.90502801    -0.74400
O160        O  0.22591994  0.39535600  0.94777549    -0.74000
O161        O  0.14143032  0.36060470  0.90463092    -0.74600
O162        O  0.18119472  0.40752846  0.94612948    -0.74200
O163        O  0.24936860  0.36829157  0.92210825    -0.74800
O164        O  0.16268084  0.27125738  0.94876472    -0.74200
O165        O  0.13916833  0.28364092  0.90561186    -0.75000
O166        O  0.21822736  0.31732746  0.94787177    -0.74400
O167        O  0.11540827  0.24898087  0.92265963    -0.74800
O168        O  0.09567610  0.28220238  0.94792530    -0.74700
O169        O  0.10305013  0.33779684  0.94838044    -0.74500
C170        C  0.12702973  0.37804337  0.90931622     0.77300
C171        C  0.24597463  0.36831152  0.91003241     0.77800
C172        C  0.21131159  0.41417145  0.95067378     0.76700
C173        C  0.19512437  0.28675879  0.95238734     0.77100
C174        C  0.12046097  0.25254934  0.91064921     0.78200
C175        C  0.08716126  0.30502758  0.95215515     0.77300
Zn176      Zn  0.32947404  0.16375648  0.06440177     1.49700
Zn177      Zn  0.27956237  0.13526919  0.04020014     1.49400
Zn178      Zn  0.35061372  0.21439556  0.03974856     1.49100
Zn179      Zn  0.35798542  0.14330651  0.03963039     1.49500
O180        O  0.32932564  0.16426494  0.04591843    -1.84000
O181        O  0.27981645  0.13673643  0.07159237    -0.74600
O182        O  0.26736472  0.16565523  0.02890197    -0.74400
O183        O  0.36679510  0.24969557  0.05448439    -0.74000
O184        O  0.24360295  0.11515640  0.05495448    -0.74600
O185        O  0.35252265  0.21401022  0.07146425    -0.74200
O186        O  0.31540195  0.22059458  0.02886801    -0.74800
O187        O  0.39808591  0.17799390  0.02844591    -0.74200
O188        O  0.27420453  0.09504760  0.02860357    -0.75000
O189        O  0.39262786  0.22721143  0.02790197    -0.74400
O190        O  0.32911440  0.10238976  0.02779996    -0.74800
O191        O  0.37763782  0.12626714  0.05388594    -0.74700
O192        O  0.35660952  0.14029892  0.07104253    -0.74500
C193        C  0.24844290  0.11895769  0.06699431     0.77300
C194        C  0.28401692  0.19827354  0.02497267     0.77800
C195        C  0.36603684  0.24545122  0.06654260     0.76700
C196        C  0.40758700  0.20939330  0.02409217     0.77100
C197        C  0.29672967  0.08664734  0.02411367     0.78200
C198        C  0.37454685  0.12705424  0.06595989     0.77300
C199        C  0.20577178  0.27031878  0.96272430    -0.19700
C200        C  0.18251825  0.25260264  0.97314006     0.36500
C201        C  0.19493823  0.24101086  0.98350333    -0.25700
C202        C  0.23001797  0.24703076  0.98371566     0.02900
C203        C  0.25291417  0.26353286  0.97319932     0.27700
C204        C  0.24063338  0.27530272  0.96282545    -0.24800
N205        N  0.14687194  0.24763593  0.97339895    -0.82200
H206        H  0.17744168  0.22779799  0.99157599     0.13500
C207        C  0.24200760  0.23461208  0.99483625     0.02900
N208        N  0.28822762  0.26764209  0.97301432    -0.80800
H209        H  0.25838160  0.28863659  0.95482548     0.18300
C210        C  0.23401165  0.19848407  0.99524913    -0.25600
C211        C  0.24654132  0.18575002  0.00521816     0.36400
C212        C  0.26746433  0.20984756  0.01501761    -0.19700
C213        C  0.27456791  0.24588272  0.01475325    -0.24900
C214        C  0.26152483  0.25839313  0.00482694     0.27800
H215        H  0.21862075  0.18039218  0.98757402     0.13500
N216        N  0.23914460  0.14880391  0.00514805    -0.82200
H217        H  0.29029867  0.26426352  0.02230929     0.18400
N218        N  0.26730720  0.29476798  0.00498245    -0.80800
H219        H  0.22280454  0.13463867  0.99743772     0.34000
H220        H  0.26345064  0.14918528  0.00374123     0.38500
H221        H  0.28141265  0.30843341  0.01315870     0.34000
H222        H  0.28352983  0.30868623  0.99719572     0.30700
H223        H  0.30130490  0.27946730  0.96444829     0.34000
H224        H  0.30315323  0.28568302  0.98026301     0.30700
H225        H  0.14918446  0.27329250  0.97395085     0.38500
H226        H  0.13320415  0.23370665  0.98163553     0.34000
C227        C  0.28603183  0.06008880  0.01364661    -0.19700
C228        C  0.25069691  0.03101751  0.01251729     0.36500
C229        C  0.24119824  0.00884961  0.00166490    -0.25700
C230        C  0.26632896  0.01521930  0.99203733     0.02900
C231        C  0.30176142  0.04362730  0.99322320     0.27700
C232        C  0.31132305  0.06584805  0.00405111    -0.24800
N233        N  0.22477175  0.02397243  0.02240492    -0.82200
H234        H  0.21398130  0.48625117  0.00079626     0.13500
C235        C  0.25487845  0.49064972  0.98102216     0.02900
N236        N  0.32760586  0.04999852  0.98336158    -0.80800
H237        H  0.33839604  0.08834710  0.00483568     0.18300
C238        C  0.24387487  0.50038808  0.96984389    -0.25600
C239        C  0.23026928  0.47619783  0.95952801     0.36400
C240        C  0.22839988  0.44220827  0.96048489    -0.19700
C241        C  0.24055760  0.43314985  0.97154850    -0.24900
C242        C  0.25342482  0.45694122  0.98191126     0.27800
H243        H  0.24494458  0.02647281  0.96934715     0.13500
N244        N  0.21818377  0.48579240  0.94817684    -0.82200
H245        H  0.23859475  0.40676644  0.97230760     0.18400
N246        N  0.26393063  0.44666054  0.99349517    -0.80800
H247        H  0.22135267  0.51175248  0.94904907     0.34000
H248        H  0.23478841  0.48691699  0.94066259     0.38500
H249        H  0.26048824  0.42058829  0.99268465     0.34000
H250        H  0.29134962  0.46423476  0.99474645     0.30700
H251        H  0.35240070  0.07234532  0.98563579     0.34000
H252        H  0.33146964  0.02755778  0.98306233     0.30700
H253        H  0.23355413  0.01683689  0.03062814     0.38500
H254        H  0.20004756  0.00165104  0.02004441     0.34000
C255        C  0.06061204  0.29339757  0.96258923    -0.19700
C256        C  0.03365573  0.30318626  0.96332520     0.36500
C257        C  0.00927604  0.29036805  0.97362425    -0.25700
C258        C  0.01224499  0.26910345  0.98329548     0.02900
C259        C  0.04000744  0.26057500  0.98274074     0.27700
C260        C  0.06342121  0.27223754  0.97229848    -0.24800
N261        N  0.03028138  0.32479571  0.95346239    -0.82200
H262        H  0.98775484  0.29670288  0.97408724     0.13500
C263        C  0.48523172  0.25434861  0.99368257     0.02900
N264        N  0.04444725  0.24032431  0.99286941    -0.80800
H265        H  0.08461836  0.26541569  0.97187340     0.18300
C266        C  0.46484050  0.21675380  0.99525760    -0.25600
C267        C  0.43982655  0.20150076  0.00520210     0.36400
C268        C  0.43512704  0.22451519  0.01385516    -0.19700
C269        C  0.45547908  0.26225742  0.01219016    -0.24900
C270        C  0.48077737  0.27741152  0.00225299     0.27800
H271        H  0.46828319  0.19919733  0.98857390     0.13500
N272        N  0.41860653  0.16273352  0.00629360    -0.82200
H273        H  0.45191079  0.27998676  0.01874298     0.18400
N274        N  0.00225094  0.31624833  0.00095589    -0.80800
H275        H  0.42614283  0.14993620  0.99939131     0.34000
H276        H  0.39206420  0.15554485  0.00432948     0.38500
H277        H  0.99558740  0.32935733  0.00800799     0.34000
H278        H  0.02895704  0.32327961  0.00250654     0.30700
H279        H  0.06613517  0.23625534  0.99098260     0.34000
H280        H  0.55032323  0.25550483  0.00106748     0.30700
H281        H  0.05245116  0.35082277  0.95407996     0.38500
H282        H  0.00779289  0.32768135  0.95511162     0.34000
C283        C  0.45819520  0.42694744  0.11773243    -0.19700
C284        C  0.42134976  0.41084046  0.11485794     0.36500
C285        C  0.40589369  0.38096149  0.10661115    -0.25700
C286        C  0.42653611  0.36711909  0.10123046     0.02900
C287        C  0.46336916  0.38344528  0.10399913     0.27700
C288        C  0.47893265  0.41348131  0.11218268    -0.24800
N289        N  0.39963465  0.42439135  0.12042150    -0.82200
H290        H  0.37771613  0.36856222  0.10426361     0.13500
C291        C  0.40954174  0.33610554  0.09238989     0.02900
N292        N  0.48472062  0.36946591  0.09843629    -0.80800
H293        H  0.00705335  0.42630378  0.11428506     0.18300
C294        C  0.41889869  0.34175968  0.07945122    -0.25600
C295        C  0.40514133  0.31281247  0.07077208     0.36400
C296        C  0.38105094  0.27738305  0.07516453    -0.19700
C297        C  0.37146765  0.27204341  0.08818052    -0.24900
C298        C  0.38539931  0.30105307  0.09683078     0.27800
H299        H  0.43759934  0.36889744  0.07617565     0.13500
N300        N  0.41625360  0.31932153  0.05762844    -0.82200
H301        H  0.35300604  0.24508696  0.09166093     0.18400
N302        N  0.37615852  0.29488020  0.11015561    -0.80800
H303        H  0.43316889  0.34697849  0.05596522     0.34000
H304        H  0.43151314  0.30674806  0.05586542     0.38500
H305        H  0.35944192  0.26725554  0.11194425     0.34000
H306        H  0.36119459  0.30745862  0.11240000     0.30700
H307        H  0.01109571  0.38461650  0.10134609     0.34000
H308        H  0.47522605  0.34328760  0.10200572     0.30700
H309        H  0.40896604  0.45074769  0.11721000     0.38500
H310        H  0.37309449  0.40924035  0.11737782     0.34000
C311        C  0.46652500  0.03651610  0.11661365    -0.19700
C312        C  0.47253742  0.07198054  0.11887615     0.36500
C313        C  0.45762220  0.08687400  0.11055761    -0.25700
C314        C  0.43811403  0.06762537  0.09983314     0.02900
C315        C  0.43357029  0.03315968  0.09721399     0.27700
C316        C  0.44834498  0.01825517  0.10549847    -0.24800
N317        N  0.49415114  0.09294705  0.12942759    -0.82200
H318        H  0.46148949  0.11371922  0.11233780     0.13500
C319        C  0.42242144  0.08371070  0.09133938     0.02900
N320        N  0.41358520  0.01330577  0.08620896    -0.80800
H321        H  0.44507980  0.49189069  0.10327639     0.18300
C322        C  0.43727257  0.09575891  0.07919113    -0.25600
C323        C  0.42242496  0.11030034  0.07069685     0.36400
C324        C  0.39169940  0.11219217  0.07443734    -0.19700
C325        C  0.37709139  0.10014647  0.08668295    -0.24900
C326        C  0.39207403  0.08579162  0.09514815     0.27800
H327        H  0.46069051  0.09399985  0.07639374     0.13500
N328        N  0.43881482  0.12365511  0.05844092    -0.82200
H329        H  0.35350686  0.10140744  0.08961231     0.18400
N330        N  0.37644335  0.07294656  0.10754185    -0.80800
H331        H  0.46089102  0.11983771  0.05718141     0.34000
H332        H  0.44875643  0.15164808  0.05835773     0.38500
H333        H  0.35429557  0.07659843  0.10890543     0.34000
H334        H  0.36680239  0.04502189  0.10780969     0.30700
H335        H  0.41299281  0.48837993  0.08555823     0.34000
H336        H  0.38710799  0.00750179  0.08749931     0.30700
H337        H  0.52012565  0.09745508  0.12800899     0.38500
H338        H  0.49589354  0.11838360  0.12970381     0.34000
C339        C  0.06719620  0.02984423  0.11812169    -0.19700
C340        C  0.07053650  0.05098059  0.10722995     0.36500
C341        C  0.09995201  0.06197674  0.09901399    -0.25700
C342        C  0.12715764  0.05401243  0.10170596     0.02900
C343        C  0.12500946  0.03446348  0.11286053     0.27700
C344        C  0.09461298  0.02184057  0.12082238    -0.24800
N345        N  0.04462898  0.06221960  0.10471936    -0.82200
H346        H  0.10232463  0.07792389  0.09062243     0.13500
C347        C  0.15853801  0.06852993  0.09300305     0.02900
N348        N  0.15363868  0.02759823  0.11603643    -0.80800
H349        H  0.09217777  0.00549588  0.12909251     0.18300
C350        C  0.19072026  0.09825955  0.09696008    -0.25600
C351        C  0.21991879  0.11579961  0.08854179     0.36400
C352        C  0.21732634  0.10243225  0.07594575    -0.19700
C353        C  0.18482344  0.07261145  0.07200311    -0.24900
C354        C  0.15537035  0.05564232  0.08040005     0.27800
H355        H  0.19254069  0.10866854  0.10654023     0.13500
N356        N  0.25173668  0.14781614  0.09265820    -0.82200
H357        H  0.18244493  0.06232341  0.06238243     0.18400
N358        N  0.12212519  0.02555742  0.07618574    -0.80800
H359        H  0.24934512  0.15376448  0.10217211     0.34000
H360        H  0.25401148  0.16953292  0.08723840     0.38500
H361        H  0.12400897  0.01952873  0.06663880     0.34000
H362        H  0.11765358  0.00288540  0.08151973     0.30700
H363        H  0.14819642  0.01339925  0.12464856     0.34000
H364        H  0.15472271  0.01077457  0.10896464     0.30700
H365        H  0.04694869  0.08005238  0.11199909     0.38500
H366        H  0.05051800  0.07688172  0.09620072     0.34000
C367        C  0.35514678  0.11751145  0.16346252    -0.19700
C368        C  0.38724528  0.13373605  0.15636033     0.36500
C369        C  0.40320599  0.11293191  0.15274678    -0.25700
C370        C  0.38847231  0.07652900  0.15648337     0.02900
C371        C  0.35567157  0.05998917  0.16334246     0.27700
C372        C  0.33903003  0.08038708  0.16635897    -0.24800
N373        N  0.40468367  0.17171827  0.15351633    -0.82200
H374        H  0.42821355  0.12560382  0.14746102     0.13500
C375        C  0.40859959  0.05722556  0.15330281     0.02900
N376        N  0.33974610  0.02363675  0.16822478    -0.80800
H377        H  0.31472294  0.06788153  0.17203862     0.18300
C378        C  0.44169584  0.06790548  0.15919991    -0.25600
C379        C  0.46413972  0.05427276  0.15519418     0.36400
C380        C  0.45244226  0.02793653  0.14532719    -0.19700
C381        C  0.41790580  0.01525599  0.14024471    -0.24900
C382        C  0.39660831  0.03058323  0.14371244     0.27800
H383        H  0.45106047  0.08855945  0.16654260     0.13500
N384        N  0.99911601  0.06970751  0.16078930    -0.82200
H385        H  0.40841652  0.49482305  0.13283534     0.18400
N386        N  0.36419627  0.02113489  0.13686283    -0.80800
H387        H  0.01268971  0.09742487  0.15872930     0.34000
H388        H  0.01431757  0.05939743  0.15668792     0.38500
H389        H  0.36021736  0.50268530  0.12957418     0.34000
H390        H  0.34263792  0.00741368  0.14311085     0.30700
H391        H  0.31497518  0.00832606  0.16376927     0.34000
H392        H  0.35516631  0.01148425  0.16613580     0.30700
H393        H  0.41347231  0.18558122  0.16216756     0.38500
H394        H  0.42762207  0.17934687  0.14797495     0.34000
C395        C  0.35928366  0.23425366  0.16387697    -0.19700
C396        C  0.34377835  0.25632077  0.16590311     0.36500
C397        C  0.36255324  0.29314979  0.16248343    -0.25700
C398        C  0.39518632  0.30809944  0.15569900     0.02900
C399        C  0.40805055  0.28427801  0.15212090     0.27700
C400        C  0.39078505  0.24820482  0.15660946    -0.24800
N401        N  0.30861097  0.24123182  0.17131713    -0.82200
H402        H  0.35157349  0.31005641  0.16547045     0.13500
C403        C  0.41550454  0.34822507  0.15261177     0.02900
N404        N  0.43838074  0.29630852  0.14380782    -0.80800
H405        H  0.40255885  0.23144834  0.15457349     0.18300
C406        C  0.45322803  0.36756726  0.15340709    -0.25600
C407        C  0.47337248  0.40405092  0.14948366     0.36400
C408        C  0.45573312  0.42329960  0.14608211    -0.19700
C409        C  0.41823647  0.40536497  0.14662288    -0.24900
C410        C  0.39796014  0.36779369  0.14902770     0.27800
H411        H  0.46732577  0.35392893  0.15670476     0.13500
N412        N  0.01148438  0.42120248  0.14866495    -0.82200
H413        H  0.40465856  0.42023799  0.14417712     0.18400
N414        N  0.35984705  0.34936209  0.14714623    -0.80800
H415        H  0.02048200  0.40357867  0.15160508     0.34000
H416        H  0.01868713  0.42704591  0.13905541     0.38500
H417        H  0.35129338  0.36757868  0.14447493     0.34000
H418        H  0.35408240  0.33149564  0.13950321     0.30700
H419        H  0.43030027  0.27976624  0.13571328     0.34000
H420        H  0.45779710  0.29262315  0.14849463     0.30700
H421        H  0.30960142  0.25754829  0.17893796     0.38500
H422        H  0.29200965  0.24300727  0.16441963     0.34000
C423        C  0.06747297  0.03830814  0.14690431    -0.19700
C424        C  0.08076333  0.02329041  0.15594470     0.36500
C425        C  0.11693521  0.04329985  0.15987200    -0.25700
C426        C  0.13983546  0.07845337  0.15525802     0.02900
C427        C  0.12567997  0.09463454  0.14710339     0.27700
C428        C  0.08974172  0.07453643  0.14310987    -0.24800
N429        N  0.05803734  0.48723093  0.16075872    -0.82200
H430        H  0.12756836  0.03121424  0.16639732     0.13500
C431        C  0.17871425  0.09748962  0.15873454     0.02900
N432        N  0.14838130  0.13062090  0.14228414    -0.80800
H433        H  0.07952504  0.08651288  0.13636374     0.18300
C434        C  0.20156695  0.08602365  0.15339317    -0.25600
C435        C  0.23807369  0.10219123  0.15691966     0.36400
C436        C  0.25220322  0.13090301  0.16582664    -0.19700
C437        C  0.22965499  0.14363920  0.17054274    -0.24900
C438        C  0.19294518  0.12639650  0.16750626     0.27800
H439        H  0.19059676  0.06374874  0.14666622     0.13500
N440        N  0.26004122  0.08801682  0.15210325    -0.82200
H441        H  0.24025999  0.16556944  0.17741142     0.18400
N442        N  0.16974523  0.13712360  0.17371663    -0.80800
H443        H  0.24490411  0.06529663  0.14639732     0.34000
H444        H  0.27927218  0.10759666  0.14607984     0.38500
H445        H  0.18426440  0.15851629  0.18002147     0.34000
H446        H  0.15151498  0.11525996  0.17928220     0.30700
H447        H  0.13434084  0.13782078  0.13587738     0.34000
H448        H  0.15526465  0.14857256  0.14994220     0.30700
H449        H  0.03779506  0.48774432  0.16616469     0.38500
H450        H  0.07218468  0.47975734  0.16700929     0.34000
C451        C  0.45392366  0.05839030  0.68031169    -0.19700
C452        C  0.41935400  0.03896122  0.67487699     0.36500
C453        C  0.41132927  0.05216544  0.66385354    -0.25700
C454        C  0.43731475  0.08392272  0.65791177     0.02900
C455        C  0.47207651  0.10287740  0.66302262     0.27700
C456        C  0.47987095  0.09026210  0.67424488    -0.24800
N457        N  0.39227457  0.50560174  0.68027038    -0.82200
H458        H  0.38448479  0.03767088  0.65997238     0.13500
C459        C  0.42694741  0.09865987  0.64698178     0.02900
N460        N  0.49936639  0.13469264  0.65670453    -0.80800
H461        H  0.50675444  0.10505691  0.67805414     0.18300
C462        C  0.43025543  0.13298697  0.64823787    -0.25600
C463        C  0.41811852  0.14719617  0.63868229     0.36400
C464        C  0.40183231  0.12632038  0.62766195    -0.19700
C465        C  0.39994104  0.09256472  0.62613230    -0.24900
C466        C  0.41231554  0.07843381  0.63574577     0.27800
H467        H  0.44155924  0.14839020  0.65689501     0.13500
N468        N  0.42180407  0.18255745  0.64022059    -0.82200
H469        H  0.38750408  0.07659414  0.61768100     0.18400
N470        N  0.40954643  0.04347937  0.63427738    -0.80800
H471        H  0.43390437  0.19402133  0.64892714     0.34000
H472        H  0.43914883  0.19923602  0.63306609     0.38500
H473        H  0.39788095  0.03200135  0.62551789     0.34000
H474        H  0.43557045  0.04737791  0.63406720     0.30700
H475        H  0.02353331  0.14545262  0.66165700     0.34000
H476        H  0.50394980  0.12670148  0.64778214     0.30700
H477        H  0.38441134  0.48541059  0.67332304     0.38500
H478        H  0.37008057  0.50847001  0.68254333     0.34000
C479        C  0.43992140  0.39886767  0.68082076    -0.19700
C480        C  0.41372648  0.39909820  0.67269210     0.36500
C481        C  0.40276735  0.37694596  0.66182902    -0.25700
C482        C  0.41775562  0.35516435  0.65879926     0.02900
C483        C  0.44325234  0.35425720  0.66697112     0.27700
C484        C  0.45428287  0.37632572  0.67786336    -0.24800
N485        N  0.39933585  0.42275851  0.67515913    -0.82200
H486        H  0.38298524  0.37720763  0.65550479     0.13500
C487        C  0.40542088  0.33228272  0.64726656     0.02900
N488        N  0.45769770  0.33084084  0.66417373    -0.80800
H489        H  0.47439331  0.37612284  0.68402239     0.18300
C490        C  0.42934829  0.33877239  0.63712472    -0.25600
C491        C  0.41911600  0.31527525  0.62655254     0.36400
C492        C  0.38437618  0.28489404  0.62628041    -0.19700
C493        C  0.35996862  0.27995182  0.63608767    -0.24900
C494        C  0.37013980  0.30323466  0.64659389     0.27800
H495        H  0.45631269  0.36158621  0.63766566     0.13500
N496        N  0.44417513  0.32133870  0.61644115    -0.82200
H497        H  0.33314730  0.25679533  0.63580017     0.18400
N498        N  0.34518299  0.29680515  0.65679626    -0.80800
H499        H  0.46837296  0.34512729  0.61807733     0.34000
H500        H  0.44989418  0.30009660  0.61663167     0.38500
H501        H  0.32021262  0.27441332  0.65476752     0.34000
H502        H  0.35470331  0.29016804  0.66494869     0.30700
H503        H  0.47637168  0.33359827  0.67108929     0.34000
H504        H  0.43666266  0.30413692  0.66477347     0.30700
H505        H  0.42010668  0.44937188  0.67387291     0.38500
H506        H  0.37969599  0.41869653  0.66847085     0.34000
C507        C  0.10557848  0.05168721  0.68027065    -0.19700
C508        C  0.12161054  0.03117862  0.67613694     0.36500
C509        C  0.14446297  0.04273611  0.66545599    -0.25700
C510        C  0.15188930  0.07429665  0.65880958     0.02900
C511        C  0.13614025  0.09488048  0.66283473     0.27700
C512        C  0.11321487  0.08343566  0.67352376    -0.24800
N513        N  0.11481184  0.99874674  0.68276022    -0.82200
H514        H  0.15698297  0.02725737  0.66234302     0.13500
C515        C  0.17858161  0.08685565  0.64831316     0.02900
N516        N  0.14357668  0.12731826  0.65606876    -0.80800
H517        H  0.10078287  0.09913749  0.67644577     0.18300
C518        C  0.16825266  0.08797001  0.63570206    -0.25600
C519        C  0.19346338  0.09998779  0.62563204     0.36400
C520        C  0.22980828  0.11145945  0.62833959    -0.19700
C521        C  0.23951237  0.10931673  0.64101354    -0.24900
C522        C  0.21451447  0.09764349  0.65098406     0.27800
H523        H  0.14043212  0.07938595  0.63373670     0.13500
N524        N  0.18231170  0.10123333  0.61282199    -0.82200
H525        H  0.26709166  0.11764206  0.64329648     0.18400
N526        N  0.22559461  0.09738971  0.66390420    -0.80800
H527        H  0.15512463  0.09351238  0.61262581     0.34000
H528        H  0.18495777  0.08180517  0.60751810     0.38500
H529        H  0.25297778  0.10599055  0.66427315     0.34000
H530        H  0.22184536  0.11636479  0.66905718     0.30700
H531        H  0.12965399  0.13920969  0.66017286     0.34000
H532        H  0.17084396  0.14587779  0.65711828     0.30700
H533        H  0.12598285  0.00636125  0.69186200     0.38500
H534        H  0.12789603  0.98650820  0.67827861     0.34000
C535        C  0.28302850  0.06145252  0.56797819    -0.19700
C536        C  0.26631912  0.06325738  0.55664094     0.36500
C537        C  0.25224063  0.03375667  0.54824652    -0.25700
C538        C  0.25411524  0.50249622  0.55101239     0.02900
C539        C  0.27131479  0.50088413  0.56222465     0.27700
C540        C  0.28606291  0.03067546  0.57055376    -0.24800
N541        N  0.26490954  0.09546621  0.55344950    -0.82200
H542        H  0.23957846  0.03500254  0.53947950     0.13500
C543        C  0.23719927  0.47140408  0.54221350     0.02900
N544        N  0.27304009  0.46875536  0.56524418    -0.80800
H545        H  0.29926756  0.02961967  0.57920408     0.18300
C546        C  0.25824568  0.45852270  0.53642804    -0.25600
C547        C  0.24272117  0.42849621  0.52829917     0.36400
C548        C  0.20574097  0.41122876  0.52596009    -0.19700
C549        C  0.18515187  0.42539421  0.53107294    -0.24900
C550        C  0.20031552  0.45492546  0.53943352     0.27800
H551        H  0.28676760  0.47176892  0.53826873     0.13500
N552        N  0.26457297  0.41593500  0.52228781    -0.82200
H553        H  0.15725088  0.41345252  0.52848206     0.18400
N554        N  0.17841988  0.46792062  0.54525112    -0.80800
H555        H  0.27838458  0.41064500  0.52940088     0.34000
H556        H  0.28362613  0.43700840  0.51666525     0.38500
H557        H  0.15192584  0.45285120  0.54212721     0.34000
H558        H  0.17788391  0.96323751  0.55518346     0.30700
H559        H  0.28677962  0.47209474  0.57379864     0.34000
H560        H  0.24683046  0.44777314  0.56674937     0.30700
H561        H  0.24676843  0.09716711  0.55968278     0.38500
H562        H  0.25443576  0.09333651  0.54429122     0.34000
C563        C  0.09929125  0.30204433  0.52694514    -0.19700
C564        C  0.09422571  0.31916114  0.53767078     0.36500
C565        C  0.06373711  0.30042840  0.54527550    -0.25700
C566        C  0.03786249  0.26497019  0.54232837     0.02900
C567        C  0.04256654  0.24733388  0.53175410     0.27700
C568        C  0.07365007  0.26587733  0.52426590    -0.24800
N569        N  0.11938171  0.35587265  0.54076333    -0.82200
H570        H  0.05990960  0.31389113  0.55343662     0.13500
C571        C  0.00575164  0.24739779  0.55041798     0.02900
N572        N  0.01568195  0.21097216  0.52862653    -0.80800
H573        H  0.07788400  0.25206702  0.51632860     0.18300
C574        C  0.47573952  0.25016593  0.54706301    -0.25600
C575        C  0.44633528  0.23807363  0.55537047     0.36400
C576        C  0.44729027  0.22282177  0.56722556    -0.19700
C577        C  0.47698567  0.21909600  0.57042132    -0.24900
C578        C  0.00636729  0.23135149  0.56207393     0.27800
H579        H  0.47567663  0.26254997  0.53803127     0.13500
N580        N  0.41524824  0.24026853  0.55166909    -0.82200
H581        H  0.47736900  0.20703491  0.57948679     0.18400
N582        N  0.03733286  0.22871086  0.56557682    -0.80800
H583        H  0.41812962  0.25006145  0.54233807     0.34000
H584        H  0.41382905  0.25946719  0.55751769     0.38500
H585        H  0.03366799  0.21664538  0.57455811     0.34000
H586        H  0.03974070  0.21137810  0.55905884     0.30700
H587        H  0.02300085  0.20216869  0.52041761     0.34000
H588        H  0.01466513  0.19410576  0.53607109     0.30700
H589        H  0.12889321  0.35644405  0.54997894     0.38500
H590        H  0.10579390  0.37061978  0.54085728     0.34000
C591        C  0.20220602  0.30454688  0.52809972    -0.19700
C592        C  0.19138641  0.26719721  0.52801342     0.36500
C593        C  0.20815153  0.25432625  0.53623950    -0.25700
C594        C  0.23422623  0.27737437  0.54494954     0.02900
C595        C  0.24377078  0.31421437  0.54548816     0.27700
C596        C  0.22752934  0.32734201  0.53706620    -0.24800
N597        N  0.16245103  0.24127817  0.52027827    -0.82200
H598        H  0.20031747  0.22583871  0.53597815     0.13500
C599        C  0.25065207  0.26210916  0.55356542     0.02900
N600        N  0.26960402  0.33798181  0.55463439    -0.80800
H601        H  0.23456985  0.35550951  0.53751369     0.18300
C602        C  0.28769761  0.27551768  0.55304100    -0.25600
C603        C  0.30388599  0.26009977  0.56047884     0.36400
C604        C  0.28243426  0.23081802  0.56874833    -0.19700
C605        C  0.24531252  0.21759417  0.56923353    -0.24900
C606        C  0.22929197  0.23320334  0.56184409     0.27800
H607        H  0.30388205  0.29752005  0.54655001     0.13500
N608        N  0.34180167  0.27357623  0.55941551    -0.82200
H609        H  0.22873914  0.19537863  0.57558381     0.18400
N610        N  0.19142930  0.22008591  0.56278218    -0.80800
H611        H  0.35358615  0.29554398  0.55311675     0.34000
H612        H  0.34536291  0.25304890  0.55537680     0.38500
H613        H  0.17948281  0.19858862  0.56925388     0.34000
H614        H  0.18801876  0.24103970  0.56651928     0.30700
H615        H  0.27371836  0.36428732  0.55370633     0.34000
H616        H  0.25876254  0.32896576  0.56373114     0.30700
H617        H  0.14965090  0.25292084  0.51533241     0.38500
H618        H  0.17319618  0.23103412  0.51355892     0.34000
C619        C  0.20454245  0.41292212  0.49789199    -0.19700
C620        C  0.23861971  0.42786966  0.49211262     0.36500
C621        C  0.25696020  0.46492057  0.48852730    -0.25700
C622        C  0.24256965  0.48786497  0.49107841     0.02900
C623        C  0.20819780  0.47242168  0.49684108     0.27700
C624        C  0.18928327  0.43517237  0.49969714    -0.24800
N625        N  0.25525305  0.40590868  0.49054726    -0.82200
H626        H  0.28286439  0.47603511  0.48390681     0.13500
C627        C  0.26273232  0.02745862  0.48735123     0.02900
N628        N  0.19319968  0.49490617  0.50037781    -0.80800
H629        H  0.16344074  0.42392008  0.50437493     0.18300
C630        C  0.24424074  0.04246109  0.48109274    -0.25600
C631        C  0.26107544  0.07892566  0.47742444     0.36400
C632        C  0.29864334  0.10122605  0.47900310    -0.19700
C633        C  0.31730304  0.08687972  0.48557421    -0.24900
C634        C  0.29963425  0.05052034  0.49000581     0.27800
H635        H  0.21610776  0.02556491  0.47888747     0.13500
N636        N  0.23890891  0.09224294  0.47214904    -0.82200
H637        H  0.34594746  0.10366653  0.48685132     0.18400
N638        N  0.31909960  0.03698899  0.49711330    -0.80800
H639        H  0.22792434  0.07835889  0.46364070     0.34000
H640        H  0.25345663  0.11978608  0.47004688     0.38500
H641        H  0.34579058  0.05719835  0.49823639     0.34000
H642        H  0.30788823  0.03044509  0.50626547     0.30700
H643        H  0.16787011  0.47946036  0.50451926     0.34000
H644        H  0.20981622  0.01300223  0.50743901     0.30700
H645        H  0.23980503  0.38528277  0.48409608     0.38500
H646        H  0.28068027  0.42104415  0.48644957     0.34000
C647        C  0.41439909  0.21391275  0.47582323    -0.19700
C648        C  0.44111151  0.24918741  0.47174605     0.36500
C649        C  0.47637611  0.26424481  0.47608642    -0.25700
C650        C  0.48640094  0.24655657  0.48500714     0.02900
C651        C  0.45958355  0.21323678  0.49015725     0.27700
C652        C  0.42410892  0.19691778  0.48531268    -0.24800
N653        N  0.43336769  0.27189954  0.46386139    -0.82200
H654        H  0.99622648  0.29086468  0.47265757     0.13500
C655        C  0.02436071  0.26577768  0.48961681     0.02900
N656        N  0.46787088  0.19706635  0.50070497    -0.80800
H657        H  0.40406756  0.17065089  0.48886295     0.18300
C658        C  0.03583336  0.29676820  0.49721357    -0.25600
C659        C  0.07160690  0.31709038  0.50133573     0.36400
C660        C  0.09654431  0.30555019  0.49825980    -0.19700
C661        C  0.08563857  0.27583373  0.49002501    -0.24900
C662        C  0.05003173  0.25628441  0.48544851     0.27800
H663        H  0.01667538  0.30519981  0.49991770     0.13500
N664        N  0.08258100  0.34892322  0.50901246    -0.82200
H665        H  0.10442286  0.26693658  0.48753047     0.18400
N666        N  0.04032414  0.22782124  0.47624518    -0.80800
H667        H  0.06111492  0.35353549  0.51061630     0.34000
H668        H  0.10174983  0.37104485  0.50380713     0.38500
H669        H  0.06257389  0.22518187  0.47382886     0.34000
H670        H  0.02178814  0.20336002  0.48044214     0.30700
H671        H  0.44497928  0.17350503  0.50370202     0.34000
H672        H  0.48606569  0.18913159  0.49759676     0.30700
H673        H  0.41284108  0.27457790  0.46816387     0.38500
H674        H  0.42573770  0.26115237  0.45483501     0.34000
C675        C  0.30641132  0.21295244  0.48139284    -0.19700
C676        C  0.32470788  0.25085114  0.48275668     0.36500
C677        C  0.30648239  0.26885813  0.48690114    -0.25700
C678        C  0.27008579  0.24974767  0.49033157     0.02900
C679        C  0.25249955  0.21133793  0.49023433     0.27700
C680        C  0.27065593  0.19343001  0.48557259    -0.24800
N681        N  0.36183263  0.27147210  0.47961003    -0.82200
H682        H  0.32076019  0.29818548  0.48690916     0.13500
C683        C  0.25071501  0.27029099  0.49348633     0.02900
N684        N  0.21613506  0.19066762  0.49466522    -0.80800
H685        H  0.25636527  0.16423521  0.48468400     0.18300
C686        C  0.21732502  0.26012769  0.48782680    -0.25600
C687        C  0.19768599  0.27782484  0.49087145     0.36400
C688        C  0.21190167  0.30691772  0.49957764    -0.19700
C689        C  0.24676624  0.31931310  0.50421447    -0.24900
C690        C  0.26567592  0.30072765  0.50169838     0.27800
H691        H  0.20623606  0.23790030  0.48108969     0.13500
N692        N  0.16279878  0.26525166  0.48556723    -0.82200
H693        H  0.25824247  0.34220031  0.51068155     0.18400
N694        N  0.29928030  0.31180666  0.50794173    -0.80800
H695        H  0.15530984  0.24228194  0.47993332     0.34000
H696        H  0.16466545  0.28543249  0.47940328     0.38500
H697        H  0.30655460  0.33466599  0.51361265     0.34000
H698        H  0.29564275  0.29093000  0.51412058     0.30700
H699        H  0.20709512  0.16290725  0.49394415     0.34000
H700        H  0.21591271  0.19627446  0.50437052     0.30700
H701        H  0.37561204  0.28525954  0.48783068     0.38500
H702        H  0.36503840  0.29088297  0.47285379     0.34000
C703        C  0.43154517  0.46162138  0.86163253    -0.19700
C704        C  0.42812018  0.47938757  0.87245195     0.36500
C705        C  0.39917904  0.46070009  0.88079953    -0.25700
C706        C  0.37357749  0.42444814  0.87855350     0.02900
C707        C  0.37776602  0.40603506  0.86806165     0.27700
C708        C  0.40679055  0.42486207  0.85968001    -0.24800
N709        N  0.45298877  0.51686242  0.87468529    -0.82200
H710        H  0.39591714  0.47498289  0.88881445     0.13500
C711        C  0.34092422  0.40748358  0.88658290     0.02900
N712        N  0.35245050  0.36843399  0.86596675    -0.80800
H713        H  0.41012668  0.41089803  0.85158330     0.18300
C714        C  0.30808015  0.39846898  0.88094521    -0.25600
C715        C  0.27686028  0.38634006  0.88832438     0.36400
C716        C  0.27832458  0.38196501  0.90169995    -0.19700
C717        C  0.31141363  0.39049926  0.90724592    -0.24900
C718        C  0.34270954  0.40338451  0.89983461     0.27800
H719        H  0.30715304  0.40237589  0.87076133     0.13500
N720        N  0.24409513  0.37940863  0.88225362    -0.82200
H721        H  0.31301447  0.38724170  0.91742864     0.18400
N722        N  0.37635673  0.41255032  0.90569323    -0.80800
H723        H  0.24751652  0.38273311  0.87236612     0.34000
H724        H  0.23809834  0.39916857  0.88542990     0.38500
H725        H  0.37320808  0.40828334  0.91555483     0.34000
H726        H  0.38452988  0.39478825  0.90212251     0.30700
H727        H  0.35928361  0.35899953  0.85780637     0.34000
H728        H  0.35438308  0.35387013  0.87368118     0.30700
H729        H  0.46472728  0.51912215  0.88359689     0.38500
H730        H  0.43860053  0.53078816  0.87509828     0.34000
C731        C  0.03543405  0.46577834  0.85697177    -0.19700
C732        C  0.07259353  0.48436602  0.85966004     0.36500
C733        C  0.08667185  0.46803729  0.86760481    -0.25700
C734        C  0.06459696  0.43403301  0.87313405     0.02900
C735        C  0.02766406  0.41537035  0.87038113     0.27700
C736        C  0.01346204  0.43149647  0.86231888    -0.24800
N737        N  0.09666059  0.02021232  0.85507878    -0.82200
H738        H  0.11498580  0.48262419  0.86985207     0.13500
C739        C  0.08036305  0.41931693  0.88231119     0.02900
N740        N  0.00473126  0.38041916  0.87594545    -0.80800
H741        H  0.48517964  0.41749094  0.86022304     0.18300
C742        C  0.06857639  0.41365390  0.89503260    -0.25600
C743        C  0.08375413  0.40106313  0.90418015     0.36400
C744        C  0.11111951  0.39349624  0.90042668    -0.19700
C745        C  0.12280281  0.39934037  0.88764002    -0.24900
C746        C  0.10780469  0.41220676  0.87857472     0.27800
H747        H  0.04773712  0.41961815  0.89786364     0.13500
N748        N  0.07078721  0.39521665  0.91711389    -0.82200
H749        H  0.14381798  0.39381239  0.88466103     0.18400
N750        N  0.12014312  0.41786723  0.86556286    -0.80800
H751        H  0.04884706  0.39942524  0.91796530     0.34000
H752        H  0.09099129  0.41506330  0.92275704     0.38500
H753        H  0.14074168  0.41167651  0.86439435     0.34000
H754        H  0.09888918  0.39961543  0.85989676     0.30700
H755        H  0.47841988  0.37006671  0.87269874     0.34000
H756        H  0.01276311  0.36253870  0.87236497     0.30700
H757        H  0.08349930  0.03014520  0.84944115     0.38500
H758        H  0.11585186  0.01886359  0.84929552     0.34000
C759        C  0.10478670  0.22036227  0.90216977    -0.19700
C760        C  0.08804889  0.18441241  0.90691014     0.36500
C761        C  0.07374428  0.15537905  0.89826045    -0.25700
C762        C  0.07685783  0.16147594  0.88507087     0.02900
C763        C  0.09384810  0.19705762  0.88029540     0.27700
C764        C  0.10743971  0.22607384  0.88887874    -0.24800
N765        N  0.08597326  0.17732730  0.92039029    -0.82200
H766        H  0.06047366  0.12778246  0.90179454     0.13500
C767        C  0.06199389  0.13027039  0.87633055     0.02900
N768        N  0.09820586  0.20359675  0.86676275    -0.88600
H769        H  0.12030993  0.25336996  0.88508919     0.18300
C770        C  0.03130970  0.12241832  0.86936026    -0.25600
C771        C  0.01662795  0.09349283  0.86076825     0.36400
C772        C  0.03245263  0.07147717  0.85927758    -0.19700
C773        C  0.06284717  0.07904947  0.86644532    -0.24900
C774        C  0.07819492  0.10863857  0.87483623     0.27800
H775        H  0.01864696  0.13886873  0.87061101     0.13500
N776        N  0.48529229  0.08631228  0.85380750    -0.82200
H777        H  0.07458893  0.06181692  0.86556154     0.18400
N778        N  0.11050468  0.11727018  0.88160508    -0.80800
H779        H  0.49099352  0.10967976  0.84869866     0.34000
H780        H  0.46513533  0.08179325  0.86038999     0.38500
H781        H  0.11989658  0.09970398  0.87893244     0.34000
H782        H  0.10416638  0.11266000  0.89130362     0.30700
H783        H  0.11305096  0.23134071  0.86486101     0.34000
H784        H  0.07285409  0.19470157  0.86284549     0.30700
H785        H  0.11207837  0.18640647  0.92361000     0.38500
H786        H  0.07175550  0.14948652  0.92219052     0.34000
C787        C  0.24027473  0.37105469  0.78643518    -0.19700
C788        C  0.25923660  0.35257516  0.78365548     0.36500
C789        C  0.28961482  0.36893653  0.77580047    -0.25700
C790        C  0.30073922  0.40297926  0.77031157     0.02900
C791        C  0.28166764  0.42135713  0.77305443     0.27700
C792        C  0.25161240  0.40517400  0.78102152    -0.24800
N793        N  0.24710198  0.31648908  0.78808544    -0.82200
H794        H  0.30386555  0.35448376  0.77358431     0.13500
C795        C  0.33134209  0.41827661  0.76131272     0.02900
N796        N  0.29227691  0.45642056  0.76785503    -0.80800
H797        H  0.23651502  0.41898448  0.78277621     0.18300
C798        C  0.32470983  0.41692472  0.74820032    -0.25600
C799        C  0.35292376  0.43074609  0.73926739     0.36400
C800        C  0.38884249  0.44718249  0.74361546    -0.19700
C801        C  0.39510351  0.44811340  0.75685660    -0.24900
C802        C  0.36672774  0.43356617  0.76571003     0.27800
H803        H  0.29723969  0.40449818  0.74493043     0.13500
N804        N  0.34497333  0.42768552  0.72586068    -0.82200
H805        H  0.42228772  0.46023538  0.76037725     0.18400
N806        N  0.37360919  0.43402050  0.77914550    -0.80800
H807        H  0.31756462  0.91614296  0.72439528     0.34000
H808        H  0.35235680  0.90940729  0.72201413     0.38500
H809        H  0.40111793  0.44587631  0.78084147     0.34000
H810        H  0.36505767  0.45048650  0.78358744     0.30700
H811        H  0.29131380  0.45453173  0.75790730     0.34000
H812        H  0.31873070  0.47402413  0.77056334     0.30700
H813        H  0.24550914  0.31628159  0.79800951     0.38500
H814        H  0.22141214  0.29991699  0.78443324     0.34000
C815        C  0.13282365  0.36596670  0.78114725    -0.19700
C816        C  0.09604128  0.35524825  0.78181998     0.36500
C817        C  0.08166231  0.36943968  0.77302458    -0.25700
C818        C  0.10304882  0.39325557  0.76340109     0.02900
C819        C  0.13926343  0.40239287  0.76226785     0.27700
C820        C  0.15372564  0.38833782  0.77110164    -0.24800
N821        N  0.07345818  0.32999579  0.79139632    -0.82200
H822        H  0.05375812  0.36231654  0.77376007     0.13500
C823        C  0.08748793  0.40970132  0.75495841     0.02900
N824        N  0.16122668  0.42630508  0.75227129    -0.80800
H825        H  0.18169300  0.39582292  0.77039757     0.18300
C826        C  0.10057878  0.44713072  0.75569249    -0.25600
C827        C  0.08558843  0.46374182  0.74828654     0.36400
C828        C  0.05738386  0.44246315  0.73987237    -0.19700
C829        C  0.04448362  0.40508715  0.73902956    -0.24900
C830        C  0.05900983  0.38834489  0.74663903     0.27800
H831        H  0.12221587  0.46328095  0.76221414     0.13500
N832        N  0.09905587  0.00214588  0.74914754    -0.82200
H833        H  0.02255180  0.38889147  0.73262100     0.18400
N834        N  0.04487535  0.34982547  0.74605188    -0.80800
H835        H  0.11974889  0.01382641  0.75582196     0.34000
H836        H  0.11027216  0.01357881  0.74030466     0.38500
H837        H  0.02362081  0.33802240  0.73958495     0.34000
H838        H  0.06505732  0.34527177  0.74248983     0.30700
H839        H  0.18734781  0.43063235  0.75285352     0.34000
H840        H  0.15085500  0.41329410  0.74357003     0.30700
H841        H  0.07248953  0.30529554  0.78964907     0.38500
H842        H  0.04723157  0.32533506  0.79067938     0.34000
C843        C  0.13586716  0.26522140  0.78407408    -0.19700
C844        C  0.14350241  0.23652470  0.78561040     0.36500
C845        C  0.12754499  0.20681682  0.77733645    -0.25700
C846        C  0.10430529  0.20517418  0.76769666     0.02900
C847        C  0.09655698  0.23345913  0.76620126     0.27700
C848        C  0.11267288  0.26336852  0.77435002    -0.24800
N849        N  0.16761832  0.23677577  0.79514556    -0.82200
H850        H  0.13342493  0.18489544  0.77838804     0.13500
C851        C  0.08859396  0.17394648  0.75901127     0.02900
N852        N  0.07205243  0.23142622  0.75649839    -0.80800
H853        H  0.10657975  0.28513464  0.77327756     0.18300
C854        C  0.05412633  0.14534432  0.76151742    -0.25600
C855        C  0.03792875  0.11554101  0.75324933     0.36400
C856        C  0.05667805  0.11478178  0.74224106    -0.19700
C857        C  0.09105088  0.14376642  0.73969539    -0.24900
C858        C  0.10738780  0.17328571  0.74808035     0.27800
H859        H  0.03989562  0.14640669  0.76992596     0.13500
N860        N  0.00247081  0.08626821  0.75590847    -0.82200
H861        H  0.10549018  0.14292060  0.73131827     0.18400
N862        N  0.14312398  0.20233812  0.74567990    -0.80800
H863        H  0.49304302  0.09079788  0.76452930     0.34000
H864        H  0.48588018  0.08564362  0.74875350     0.38500
H865        H  0.15348567  0.19739554  0.73736080     0.34000
H866        H  0.14163742  0.22585703  0.74403297     0.30700
H867        H  0.06871783  0.25419565  0.75684804     0.34000
H868        H  0.08361068  0.23208031  0.74763508     0.30700
H869        H  0.17926937  0.26063310  0.80042800     0.38500
H870        H  0.15265529  0.21555857  0.80151266     0.34000
C871        C  0.13066410  0.37651925  0.80984385    -0.19700
C872        C  0.14042771  0.41178073  0.80565034     0.36500
C873        C  0.11956481  0.42753315  0.80901583    -0.25700
C874        C  0.09058953  0.41062770  0.81756277     0.02900
C875        C  0.08247020  0.37635339  0.82265813     0.27700
C876        C  0.10230969  0.35953613  0.81861532    -0.24800
N877        N  0.17179289  0.43196027  0.79795030    -0.82200
H878        H  0.12622818  0.45335495  0.80477665     0.13500
C879        C  0.07005598  0.42980719  0.82115681     0.02900
N880        N  0.05409219  0.35859606  0.83184348    -0.80800
H881        H  0.09485382  0.33259248  0.82197981     0.18300
C882        C  0.03227526  0.41074965  0.82174150    -0.25600
C883        C  0.01276583  0.42772406  0.82589562     0.36400
C884        C  0.03103066  0.46512759  0.82864202    -0.19700
C885        C  0.06814723  0.48482575  0.82678762    -0.24900
C886        C  0.08800952  0.46751895  0.82379779     0.27800
H887        H  0.01790717  0.38227727  0.81928957     0.13500
N888        N  0.47493708  0.40722487  0.82740013    -0.82200
H889        H  0.08218773  0.01365315  0.82871775     0.18400
N890        N  0.12648985  0.48792592  0.82413995    -0.80800
H891        H  0.46552003  0.38015570  0.82491821     0.34000
H892        H  0.46900299  0.40734185  0.83707202     0.38500
H893        H  0.13557766  0.01527777  0.82622668     0.34000
H894        H  0.13489196  0.47774789  0.83164312     0.30700
H895        H  0.05152140  0.33375463  0.83458351     0.34000
H896        H  0.06129642  0.37480244  0.84001464     0.30700
H897        H  0.18911057  0.45554239  0.80291895     0.38500
H898        H  0.16424403  0.43989076  0.78961383     0.34000
C899        C  0.23538041  0.37339146  0.81486677    -0.19700
C900        C  0.25576006  0.41145792  0.81461352     0.36500
C901        C  0.29158385  0.42907604  0.81869424    -0.25700
C902        C  0.30754093  0.40938241  0.82335381     0.02900
C903        C  0.28572874  0.37156706  0.82502058     0.27700
C904        C  0.25006985  0.35382491  0.82058652    -0.24800
N905        N  0.24032681  0.43228309  0.80989270    -0.82200
H906        H  0.30735869  0.45826003  0.81778123     0.13500
C907        C  0.34672323  0.42902444  0.82654256     0.02900
N908        N  0.29966067  0.35114428  0.83122672    -0.80800
H909        H  0.23445956  0.32455715  0.82105271     0.18300
C910        C  0.36024923  0.45975729  0.83435234    -0.25600
C911        C  0.39653271  0.47918746  0.83770407     0.36400
C912        C  0.42048994  0.46717418  0.83350275    -0.19700
C913        C  0.40749765  0.43773801  0.82503890    -0.24900
C914        C  0.37101506  0.41884629  0.82138126     0.27800
H915        H  0.34229827  0.46875647  0.83800334     0.13500
N916        N  0.40802569  0.51131455  0.84523060    -0.82200
H917        H  0.42558399  0.42872300  0.82159360     0.18400
N918        N  0.35858609  0.38945193  0.81243131    -0.80800
H919        H  0.39539527  0.00345895  0.85418926     0.34000
H920        H  0.43534603  0.02465330  0.84669269     0.38500
H921        H  0.37970168  0.38549631  0.80947758     0.34000
H922        H  0.34966373  0.39690817  0.80432511     0.30700
H923        H  0.28368779  0.33859990  0.83923149     0.34000
H924        H  0.29720135  0.33083781  0.82497806     0.30700
H925        H  0.25670764  0.44902302  0.80257499     0.38500
H926        H  0.24075062  0.44906148  0.81727671     0.34000
C927        C  0.11995683  0.26232017  0.81232893    -0.19700
C928        C  0.13040592  0.25072098  0.82323697     0.36500
C929        C  0.11044590  0.21418065  0.82717495    -0.25700
C930        C  0.08172632  0.18800285  0.81980008     0.02900
C931        C  0.07030566  0.20042318  0.80922317     0.27700
C932        C  0.08771143  0.23763137  0.80636106    -0.24800
N933        N  0.16214428  0.27534605  0.82997416    -0.82200
H934        H  0.11858770  0.20605985  0.83575217     0.13500
C935        C  0.06448648  0.14817085  0.82310037     0.02900
N936        N  0.04279933  0.17523790  0.80083985    -0.80800
H937        H  0.07818056  0.24680665  0.79842652     0.18300
C938        C  0.02696395  0.12546345  0.82226571    -0.25600
C939        C  0.01026800  0.08845348  0.82555091     0.36400
C940        C  0.03068960  0.07404457  0.83071504    -0.19700
C941        C  0.06807396  0.09589619  0.83110141    -0.24900
C942        C  0.08511819  0.13224395  0.82704626     0.27800
H943        H  0.01010508  0.13650480  0.81942797     0.13500
N944        N  0.97234210  0.06596126  0.82414353    -0.82200
H945        H  0.08413665  0.08486501  0.83489629     0.18400
N946        N  0.12345277  0.15271116  0.82691991    -0.80800
H947        H  0.96624406  0.06580022  0.81448910     0.34000
H948        H  0.95963599  0.07771300  0.82918067     0.38500
H949        H  0.13252091  0.15277845  0.83616683     0.34000
H950        H  0.13289397  0.13941091  0.82098260     0.30700
H951        H  0.03794858  0.18883420  0.79347252     0.34000
H952        H  0.05247327  0.15956642  0.79650027     0.30700
H953        H  0.15503811  0.27641168  0.83944893     0.38500
H954        H  0.17957639  0.26477988  0.82990065     0.34000
C955        C  0.36824137  0.23194750  0.19204521    -0.19700
C956        C  0.40521274  0.24694852  0.19389646     0.36500
C957        C  0.42276772  0.27504979  0.20275312    -0.25700
C958        C  0.40374222  0.28847652  0.20966493     0.02900
C959        C  0.36682962  0.27463723  0.20722296     0.27700
C960        C  0.34966278  0.24638731  0.19849951    -0.24800
N961        N  0.42483698  0.23361162  0.18679912    -0.82200
H962        H  0.45127533  0.28638860  0.20426716     0.13500
C963        C  0.42338144  0.31866426  0.21863425     0.02900
N964        N  0.34612868  0.28901391  0.21308439    -0.80800
H965        H  0.32154526  0.23579364  0.19669159     0.18300
C966        C  0.44514636  0.35322119  0.21359769    -0.25600
C967        C  0.46115757  0.38369338  0.22154452     0.36400
C968        C  0.45437345  0.37947663  0.23487382    -0.19700
C969        C  0.43452261  0.34429041  0.23995614    -0.24900
C970        C  0.41895221  0.31376050  0.23194549     0.27800
H971        H  0.44892420  0.35647251  0.20335147     0.13500
N972        N  0.48390213  0.41882562  0.21605534    -0.82200
H973        H  0.42998670  0.34060609  0.25015335     0.18400
N974        N  0.39857185  0.27794802  0.23723572    -0.80800
H975        H  0.98510788  0.41711616  0.20612462     0.34000
H976        H  0.00975411  0.42795086  0.21943022     0.38500
H977        H  0.39881580  0.27902811  0.24720511     0.34000
H978        H  0.37189865  0.26746795  0.23449842     0.30700
H979        H  0.32648033  0.26863053  0.21878022     0.34000
H980        H  0.36154099  0.31092851  0.21904519     0.30700
H981        H  0.44484350  0.25523783  0.18161056     0.38500
H982        H  0.43723673  0.22466028  0.19326562     0.34000
C983        C  0.43411328  0.04357711  0.23323354    -0.19700
C984        C  0.42939445  0.03459981  0.22006283     0.36500
C985        C  0.41726201  0.05240094  0.21185661    -0.25700
C986        C  0.40918242  0.07845985  0.21648376     0.02900
C987        C  0.41307206  0.08696135  0.22958849     0.27700
C988        C  0.42552363  0.06949740  0.23782244    -0.24800
N989        N  0.43630948  0.00708373  0.21505933    -0.82200
H990        H  0.41320933  0.04529812  0.20182726     0.13500
C991        C  0.39357891  0.09424422  0.20770735     0.02900
N992        N  0.40420864  0.11322754  0.23446590    -0.80800
H993        H  0.42909387  0.07666865  0.24784286     0.18300
C994        C  0.35708704  0.08305500  0.20889997    -0.25600
C995        C  0.34075248  0.09706383  0.20089890     0.36400
C996        C  0.36160131  0.12361432  0.19176591    -0.19700
C997        C  0.39811654  0.13460868  0.19045391    -0.24900
C998        C  0.41426887  0.11972297  0.19822716     0.27800
H999        H  0.34123760  0.06297324  0.21604223     0.13500
N1000       N  0.30297501  0.08415979  0.20191719    -0.82200
H1001       H  0.41405282  0.15506487  0.18344363     0.18400
N1002       N  0.45164452  0.13104478  0.19677040    -0.80800
H1003       H  0.29155623  0.06482337  0.20916880     0.34000
H1004       H  0.29116873  0.07088191  0.19339465     0.38500
H1005       H  0.46316472  0.15080710  0.18965723     0.34000
H1006       H  0.45350647  0.10874608  0.19352207     0.30700
H1007       H  0.40823628  0.11619388  0.24432653     0.34000
H1008       H  0.42202716  0.13824948  0.23037722     0.30700
H1009       H  0.41759600  0.48245989  0.21910534     0.38500
H1010       H  0.43221751  0.50442490  0.20519434     0.34000
C1011       C  0.10769995  0.05444092  0.23490169    -0.19700
C1012       C  0.10645386  0.06677998  0.22248069     0.36500
C1013       C  0.13602278  0.07785060  0.21431731    -0.25700
C1014       C  0.16667772  0.07719762  0.21840950     0.02900
C1015       C  0.16842043  0.06599678  0.23088383     0.27700
C1016       C  0.13888577  0.05478426  0.23904562    -0.24800
N1017       N  0.07554054  0.06865008  0.21830537    -0.82200
H1018       H  0.13556961  0.08779911  0.20483691     0.13500
C1019       C  0.19841899  0.09243577  0.21008439     0.02900
N1020       N  0.20029115  0.06623456  0.23517659    -0.80800
H1021       H  0.13987146  0.04537067  0.24856128     0.18300
C1022       C  0.22682724  0.12650901  0.21316227    -0.25600
C1023       C  0.25721725  0.14327651  0.20542334     0.36400
C1024       C  0.25946325  0.12575064  0.19430834    -0.19700
C1025       C  0.23162083  0.09047715  0.19163902    -0.24900
C1026       C  0.20073166  0.07382896  0.19932270     0.27800
H1027       H  0.22510032  0.14054324  0.22155438     0.13500
N1028       N  0.28518760  0.17850591  0.20883765    -0.82200
H1029       H  0.23383603  0.07607735  0.18346307     0.18400
N1030       N  0.17217186  0.03805018  0.19640856    -0.80800
H1031       H  0.29471153  0.17681262  0.21783233     0.34000
H1032       H  0.27405432  0.19546470  0.20963830     0.38500
H1033       H  0.17865865  0.02778924  0.18837692     0.34000
H1034       H  0.14972965  0.04019186  0.19394032     0.30700
H1035       H  0.19737352  0.05748641  0.24464881     0.34000
H1036       H  0.20340310  0.04738729  0.22968792     0.30700
H1037       H  0.07343525  0.08770026  0.22403593     0.38500
H1038       H  0.07904481  0.07832075  0.20894041     0.34000
C1039       C  0.11901255  0.40061900  0.35113367    -0.19700
C1040       C  0.08370753  0.39496228  0.35152776     0.36500
C1041       C  0.07114237  0.40675984  0.34119992    -0.25700
C1042       C  0.09302770  0.42341431  0.33053839     0.02900
C1043       C  0.12850075  0.43015107  0.33034267     0.27700
C1044       C  0.14127646  0.41920619  0.34071329    -0.24800
N1045       N  0.06031057  0.37591378  0.36202918    -0.82200
H1046       H  0.04388449  0.40191097  0.34124045     0.13500
C1047       C  0.07852008  0.43291090  0.31937585     0.02900
N1048       N  0.15099213  0.44700619  0.31940622    -0.80800
H1049       H  0.16840438  0.42369512  0.34038183     0.18300
C1050       C  0.08937350  0.46933124  0.31711832    -0.25600
C1051       C  0.07724530  0.47979252  0.30639564     0.36400
C1052       C  0.05443055  0.45311961  0.29755118    -0.19700
C1053       C  0.04367773  0.41654139  0.29986917    -0.24900
C1054       C  0.05573030  0.40620374  0.31067915     0.27800
H1055       H  0.10705117  0.48959961  0.32387059     0.13500
N1056       N  0.08695682  0.01712189  0.30475094    -0.82200
H1057       H  0.02595885  0.39600001  0.29320702     0.18400
N1058       N  0.04517220  0.36881161  0.31284875    -0.80800
H1059       H  0.10430907  0.03311266  0.31197643     0.34000
H1060       H  0.06370701  0.01904966  0.30574204     0.38500
H1061       H  0.02813454  0.35253282  0.30559896     0.34000
H1062       H  0.06821884  0.36639964  0.31229965     0.30700
H1063       H  0.17643581  0.45006171  0.32078582     0.34000
H1064       H  0.13977300  0.42940942  0.31166630     0.30700
H1065       H  0.05541945  0.34923372  0.36179545     0.38500
H1066       H  0.03547943  0.37451720  0.36086798     0.34000
C1067       C  0.03848606  0.10271090  0.29491968    -0.19700
C1068       C  0.01351078  0.10881711  0.30189564     0.36500
C1069       C  0.02563589  0.13443473  0.31186448    -0.25700
C1070       C  0.06177810  0.15309790  0.31538377     0.02900
C1071       C  0.08669032  0.14717574  0.30853061     0.27700
C1072       C  0.07489367  0.12228842  0.29836882    -0.24800
N1073       N  0.97581893  0.08826168  0.29920780    -0.82200
H1074       H  0.00661483  0.13900229  0.31723518     0.13500
C1075       C  0.07333400  0.17835044  0.32643197     0.02900
N1076       N  0.12390314  0.16634309  0.31200556    -0.80800
H1077       H  0.09432347  0.11783183  0.29324039     0.18300
C1078       C  0.08503086  0.16929317  0.33760892    -0.25600
C1079       C  0.09867238  0.19355846  0.34796035     0.36400
C1080       C  0.10155823  0.22813119  0.34695693    -0.19700
C1081       C  0.08814284  0.23630602  0.33593871    -0.24900
C1082       C  0.07402825  0.21178760  0.32570568     0.27800
H1083       H  0.08388839  0.14326064  0.33817138     0.13500
N1084       N  0.11085143  0.18364098  0.35921128    -0.82200
H1085       H  0.08947504  0.26238701  0.33515390     0.18400
N1086       N  0.06127010  0.22107034  0.31444581    -0.80800
H1087       H  0.10872652  0.15818045  0.35807753     0.34000
H1088       H  0.09337681  0.18089640  0.36664367     0.38500
H1089       H  0.06334557  0.24654016  0.31545459     0.34000
H1090       H  0.07812992  0.22316568  0.30687790     0.30700
H1091       H  0.13877806  0.15869977  0.30613710     0.34000
H1092       H  0.13347057  0.19389690  0.31033149     0.30700
H1093       H  0.46724904  0.06109025  0.30204811     0.38500
H1094       H  0.46136879  0.09646573  0.30507732     0.34000
C1095       C  0.39244628  0.43293208  0.29574822    -0.19700
C1096       C  0.39273560  0.40703334  0.30422715     0.36500
C1097       C  0.37059816  0.39641943  0.31507412    -0.25700
C1098       C  0.34885675  0.41153999  0.31780667     0.02900
C1099       C  0.34837420  0.43720269  0.30942585     0.27700
C1100       C  0.37020473  0.44767605  0.29849235    -0.24800
N1101       N  0.41633642  0.39252526  0.30211988    -0.82200
H1102       H  0.37078179  0.37674933  0.32161044     0.13500
C1103       C  0.32557856  0.39914482  0.32923916     0.02900
N1104       N  0.32566078  0.45243891  0.31205862    -0.80800
H1105       H  0.37006842  0.46771826  0.29213913     0.18300
C1106       C  0.33095338  0.42367758  0.33911656    -0.25600
C1107       C  0.30727377  0.41332456  0.34957959     0.36400
C1108       C  0.27735608  0.37811804  0.34987999    -0.19700
C1109       C  0.27320258  0.35316506  0.34032880    -0.24900
C1110       C  0.29721442  0.36321975  0.33005937     0.27800
H1111       H  0.35324385  0.45109859  0.33850406     0.13500
N1112       N  0.31232331  0.43890934  0.35945889    -0.82200
H1113       H  0.25034930  0.32601516  0.34067370     0.18400
N1114       N  0.29229160  0.33746553  0.32024830    -0.80800
H1115       H  0.33487999  0.46399699  0.35751615     0.34000
H1116       H  0.31786945  0.42954034  0.36789303     0.38500
H1117       H  0.27037852  0.31209279  0.32236699     0.34000
H1118       H  0.28612547  0.34621035  0.31179039     0.30700
H1119       H  0.32872164  0.47120762  0.30502113     0.34000
H1120       H  0.29911606  0.43144493  0.31155968     0.30700
H1121       H  0.44257244  0.41367321  0.30335417     0.38500
H1122       H  0.41226174  0.37308216  0.30902649     0.34000
C1123       C  0.22428870  0.45067141  0.40819967    -0.19700
C1124       C  0.26081933  0.47795324  0.40742277     0.36500
C1125       C  0.27412545  0.50778786  0.41579306    -0.25700
C1126       C  0.25208048  0.01065160  0.42508500     0.02900
C1127       C  0.21566204  0.48416500  0.42571946     0.27700
C1128       C  0.20210970  0.45459799  0.41724355    -0.24800
N1129       N  0.28416219  0.47594685  0.39798335    -0.82200
H1130       H  0.30202231  0.52866287  0.41521717     0.13500
C1131       C  0.26776701  0.04179252  0.43411912     0.02900
N1132       N  0.19257655  0.98695784  0.43507694    -0.80800
H1133       H  0.17413396  0.43402286  0.41791278     0.18300
C1134       C  0.25611645  0.06738343  0.43357624    -0.25600
C1135       C  0.27101240  0.09798550  0.44153205     0.36400
C1136       C  0.29787159  0.10318312  0.45033869    -0.19700
C1137       C  0.30950336  0.07763566  0.45091400    -0.24900
C1138       C  0.29476372  0.04698408  0.44300791     0.27800
H1139       H  0.23555115  0.06376901  0.42682537     0.13500
N1140       N  0.25834330  0.12342004  0.44078067    -0.82200
H1141       H  0.33047280  0.08165046  0.45753528     0.18400
N1142       N  0.30736730  0.02152339  0.44453814    -0.80800
H1143       H  0.26246962  0.13352573  0.43147437     0.34000
H1144       H  0.23075284  0.10960509  0.44256000     0.38500
H1145       H  0.33390596  0.03403040  0.44134532     0.34000
H1146       H  0.29284408  0.49828736  0.43911049     0.30700
H1147       H  0.16644537  0.46551504  0.43420491     0.34000
H1148       H  0.20169942  0.98482762  0.44409675     0.30700
H1149       H  0.28945920  0.45546127  0.40078781     0.38500
H1150       H  0.30894392  0.49982691  0.39790872     0.34000
C1151       C  0.05641748  0.27043844  0.40817496    -0.19700
C1152       C  0.05097958  0.28872138  0.41846249     0.36500
C1153       C  0.01988842  0.27046311  0.42594082    -0.25700
C1154       C  0.49450237  0.23423638  0.42346142     0.02900
C1155       C  0.50033826  0.21542429  0.41353193     0.27700
C1156       C  0.03139827  0.23375904  0.40597561    -0.24800
N1157       N  0.07717447  0.32556208  0.42136278    -0.82200
H1158       H  0.01515257  0.28453096  0.43368961     0.13500
C1159       C  0.46111631  0.21748883  0.43099764     0.02900
N1160       N  0.47424541  0.17833701  0.41093583    -0.80800
H1161       H  0.03564803  0.21958287  0.39815206     0.18300
C1162       C  0.43287834  0.22250416  0.42701054    -0.25600
C1163       C  0.40316879  0.21299962  0.43491960     0.36400
C1164       C  0.40122482  0.19735142  0.44705332    -0.19700
C1165       C  0.42806045  0.18890263  0.45031363    -0.24900
C1166       C  0.45865901  0.20013343  0.44266256     0.27800
H1167       H  0.43483483  0.23577205  0.41797225     0.13500
N1168       N  0.37632545  0.22122049  0.43073609    -0.82200
H1169       H  0.42590232  0.17466220  0.45911237     0.18400
N1170       N  0.48795907  0.19563189  0.44697031    -0.80800
H1171       H  0.36531965  0.20692701  0.42228757     0.34000
H1172       H  0.38883195  0.24883698  0.42857242     0.38500
H1173       H  0.48243883  0.18357222  0.45599808     0.34000
H1174       H  0.99025897  0.17765593  0.44073982     0.30700
H1175       H  0.48233328  0.16861850  0.40316606     0.34000
H1176       H  0.47329218  0.16282062  0.41881498     0.30700
H1177       H  0.10061275  0.32574256  0.42414200     0.38500
H1178       H  0.06892933  0.33502062  0.42917388     0.34000
C1179       C  0.22036814  0.27825992  0.40971628    -0.19700
C1180       C  0.21360897  0.24214073  0.40924847     0.36500
C1181       C  0.22630007  0.22907107  0.41910701    -0.25700
C1182       C  0.24535810  0.25122765  0.42941999     0.02900
C1183       C  0.25152398  0.28700239  0.43003576     0.27700
C1184       C  0.23928974  0.30025742  0.42012456    -0.24800
N1185       N  0.19472825  0.21916940  0.39864806    -0.82200
H1186       H  0.22223921  0.20179920  0.41858607     0.13500
C1187       C  0.26251099  0.23812524  0.43861684     0.02900
N1188       N  0.27039162  0.30970805  0.44070397    -0.80800
H1189       H  0.24402433  0.32776912  0.42064731     0.18300
C1190       C  0.29999346  0.25672209  0.43907696    -0.25600
C1191       C  0.31858164  0.24426866  0.44649795     0.36400
C1192       C  0.29926731  0.21135053  0.45326425    -0.19700
C1193       C  0.26171387  0.19342353  0.45327514    -0.24900
C1194       C  0.24300413  0.20653324  0.44612531     0.27800
H1195       H  0.31512828  0.28103642  0.43341265     0.13500
N1196       N  0.35692602  0.26561463  0.44679926    -0.82200
H1197       H  0.24678261  0.16872331  0.45874530     0.18400
N1198       N  0.20455408  0.18745251  0.44688379    -0.80800
H1199       H  0.36363809  0.29134462  0.45036843     0.34000
H1200       H  0.36765612  0.25476860  0.45302808     0.38500
H1201       H  0.19531549  0.16214842  0.44259241     0.34000
H1202       H  0.19349060  0.20083731  0.44192455     0.30700
H1203       H  0.27286219  0.33535618  0.43969757     0.34000
H1204       H  0.25483879  0.29808122  0.44886611     0.30700
H1205       H  0.21061660  0.23024007  0.39050708     0.38500
H1206       H  0.19173004  0.19337923  0.39985707     0.34000
Zn1207     Zn  0.16737707  0.83729570  0.36113607     1.49700
Zn1208     Zn  0.21709512  0.86025333  0.38545433     1.49400
Zn1209     Zn  0.14166308  0.85874865  0.38625033     1.49100
Zn1210     Zn  0.14395862  0.78322980  0.38369009     1.49500
O1211       O  0.16745741  0.83498788  0.37941360    -1.84000
O1212       O  0.21585641  0.85366370  0.35407318    -0.74600
O1213       O  0.22804917  0.90567640  0.39538871    -0.74400
O1214       O  0.12292325  0.87798413  0.37187644    -0.74000
O1215       O  0.25254837  0.87355418  0.37071545    -0.74600
O1216       O  0.15113103  0.87070460  0.35531440    -0.74200
O1217       O  0.17480474  0.90182827  0.39740083    -0.74800
O1218       O  0.10146716  0.77091700  0.39490903    -0.74200
O1219       O  0.22404156  0.82722277  0.39753395    -0.75000
O1220       O  0.10037409  0.82254399  0.39712611    -0.74400
O1221       O  0.17682880  0.77254970  0.39440293    -0.74800
O1222       O  0.12457399  0.74993770  0.36807170    -0.74700
O1223       O  0.13434950  0.78993364  0.35291101    -0.74500
C1224       C  0.24713525  0.86800264  0.35876572     0.77300
C1225       C  0.20831341  0.91780870  0.39980311     0.77800
C1226       C  0.13164725  0.88248793  0.36007983     0.76700
C1227       C  0.08775431  0.78897308  0.39961857     0.77100
C1228       C  0.20657401  0.79330849  0.39986167     0.78200
C1229       C  0.12087433  0.75726317  0.35656177     0.77300
Zn1230     Zn  0.46649046  0.51502524  0.26928387     1.49700
Zn1231     Zn  0.49571154  0.99267495  0.24512568     1.49400
Zn1232     Zn  0.04429847  0.52328304  0.26988379     1.49100
Zn1233     Zn  0.47557245  0.94374049  0.26976543     1.49500
O1234       O  0.49543056  0.99373252  0.26359347    -1.84000
O1235       O  0.44644808  0.52986351  0.25421315    -0.74600
O1236       O  0.04522994  0.52123016  0.23831417    -0.74400
O1237       O  0.04933146  0.56455032  0.28094858    -0.74000
O1238       O  0.46764742  0.51393897  0.23758272    -0.74600
O1239       O  0.99519155  0.55861428  0.28060707    -0.74200
O1240       O  0.08010556  0.54178569  0.25540120    -0.74800
O1241       O  0.00862091  0.93971398  0.28230700    -0.74200
O1242       O  0.47658853  0.94236008  0.23849626    -0.75000
O1243       O  0.05633971  0.99461720  0.28198966    -0.74400
O1244       O  0.46424218  0.90726618  0.25550879    -0.74800
O1245       O  0.43217357  0.93015268  0.28047971    -0.74700
O1246       O  0.42775267  0.98010984  0.28107659    -0.74500
C1247       C  0.44982856  0.52793432  0.24216008     0.77300
C1248       C  0.07602758  0.53877504  0.24333542     0.77800
C1249       C  0.02714384  0.57421666  0.28480680     0.76700
C1250       C  0.03927624  0.96273852  0.28653668     0.77100
C1251       C  0.46596057  0.91134977  0.24342933     0.78200
C1252       C  0.41818044  0.94815789  0.28496869     0.77300
C1253       C  0.16341693  0.83590178  0.81134238     0.45600
H1254       H  0.16043141  0.83665435  0.82184486    -0.03400
C1255       C  0.17074826  0.83492592  0.78662761     0.45600
H1256       H  0.17393899  0.83444914  0.77610554    -0.03400
C1257       C  0.14723976  0.85603184  0.80386180    -0.17100
C1258       C  0.20306955  0.85419690  0.80666382    -0.16900
C1259       C  0.14478433  0.79702821  0.80549115    -0.17300
C1260       C  0.15013393  0.85394479  0.79081373    -0.17200
C1261       C  0.20619264  0.85355339  0.79364921    -0.16800
C1262       C  0.15040422  0.79739632  0.79251382    -0.17100
C1263       C  0.49333640  0.50064760  0.83202012     0.45600
H1264       H  0.49062922  0.50067567  0.82148954    -0.03400
C1265       C  0.50015781  0.50092494  0.85678821     0.45600
H1266       H  0.50326692  0.50087764  0.86731042    -0.03400
C1267       C  0.01346920  0.53926587  0.83800143    -0.17100
C1268       C  0.45701531  0.98153094  0.83941317    -0.16900
C1269       C  0.01438552  0.98176683  0.83675699    -0.17300
C1270       C  0.01609449  0.53881359  0.85104840    -0.17200
C1271       C  0.46134544  0.98105598  0.85241636    -0.16800
C1272       C  0.01794489  0.98264039  0.84976570    -0.17100
C1273       C  0.16976653  0.83905151  0.49951165     0.45600
H1274       H  0.17020458  0.83878960  0.48893316    -0.03400
C1275       C  0.16889890  0.84077958  0.52442516     0.45600
H1276       H  0.16907530  0.84162784  0.53501659    -0.03400
C1277       C  0.18924838  0.82042228  0.50606043    -0.17100
C1278       C  0.18848988  0.87797311  0.50516736    -0.16900
C1279       C  0.13123126  0.82052251  0.50550120    -0.17300
C1280       C  0.18737143  0.82095700  0.51918650    -0.17200
C1281       C  0.18797834  0.87812084  0.51821176    -0.16800
C1282       C  0.13157216  0.82118960  0.51866008    -0.17100
C1283       C  0.34125185  0.67498267  0.47743039     0.45600
H1284       H  0.34445122  0.67535932  0.48794492    -0.03400
C1285       C  0.33308982  0.67382804  0.45275428     0.45600
H1286       H  0.32853873  0.67250446  0.44234777    -0.03400
C1287       C  0.32124338  0.69497611  0.47297735    -0.17100
C1288       C  0.37752445  0.69379920  0.46978677    -0.16900
C1289       C  0.31890614  0.63599553  0.47164442    -0.17300
C1290       C  0.31752276  0.69445461  0.46000158    -0.17200
C1291       C  0.37247560  0.69082810  0.45668638    -0.16800
C1292       C  0.31543670  0.63620455  0.45860630    -0.17100
Zn1293     Zn  0.33890791  0.67391067  0.61528401     1.49700
Zn1294     Zn  0.28823225  0.64796962  0.59164885     1.49400
Zn1295     Zn  0.36396491  0.72278391  0.59082890     1.49100
Zn1296     Zn  0.36272096  0.64595594  0.59179825     1.49500
O1297       O  0.33840825  0.67265738  0.59709909    -1.84000
O1298       O  0.29094532  0.64430510  0.62271261    -0.74600
O1299       O  0.27820723  0.68181017  0.58111191    -0.74400
O1300       O  0.38157383  0.76031175  0.60526492    -0.74000
O1301       O  0.25282011  0.62787327  0.60669075    -0.74600
O1302       O  0.35672589  0.72321963  0.62170315    -0.74200
O1303       O  0.33103389  0.73211684  0.57998531    -0.74800
O1304       O  0.40418150  0.67733729  0.58043319    -0.74200
O1305       O  0.28005899  0.60678397  0.58013873    -0.75000
O1306       O  0.40474315  0.73001615  0.57940970    -0.74400
O1307       O  0.32984340  0.60288618  0.58122892    -0.74800
O1308       O  0.38205204  0.63004483  0.60664257    -0.74700
O1309       O  0.36933340  0.65598252  0.62263012    -0.74500
C1310       C  0.25904969  0.62838257  0.61860539     0.77300
C1311       C  0.29808385  0.71399527  0.57700390     0.77800
C1312       C  0.37391808  0.75493286  0.61711761     0.76700
C1313       C  0.41713463  0.70942688  0.57615070     0.77100
C1314       C  0.29844090  0.59193579  0.57695266     0.78200
C1315       C  0.38374385  0.63821992  0.61841038     0.77300
Zn1316     Zn  0.45053679  0.98045400  0.70785762     1.49700
Zn1317     Zn  0.02777052  0.55242795  0.70695165     1.49400
Zn1318     Zn  0.00135244  0.50149070  0.73162906     1.49100
Zn1319     Zn  0.02225233  0.97521176  0.70609707     1.49500
O1320       O  0.00060341  0.50249621  0.71311937    -1.84000
O1321       O  0.44340745  0.51345685  0.69600446    -0.74600
O1322       O  0.04536551  0.58804440  0.72162404    -0.74400
O1323       O  0.45173107  0.97537927  0.73926110    -0.74000
O1324       O  0.49710508  0.56237365  0.69519708    -0.74600
O1325       O  0.41586313  0.96480141  0.72277772    -0.74200
O1326       O  0.02524514  0.55178488  0.73858367    -0.74800
O1327       O  0.03903117  0.95453724  0.72007664    -0.74200
O1328       O  0.06883763  0.56059458  0.69537508    -0.75000
O1329       O  0.02826684  0.97694665  0.73773342    -0.74400
O1330       O  0.06345844  0.50609467  0.69431192    -0.74800
O1331       O  0.48790859  0.93571311  0.69460092    -0.74700
O1332       O  0.43754441  0.93781869  0.69660244    -0.74500
C1333       C  0.46496484  0.54429976  0.69128958     0.77300
C1334       C  0.04156375  0.58326861  0.73366669     0.77800
C1335       C  0.42038993  0.96323671  0.73472177     0.76700
C1336       C  0.04063379  0.95880291  0.73213860     0.77100
C1337       C  0.07841085  0.53897942  0.69070787     0.78200
C1338       C  0.45560842  0.92485380  0.69144923     0.77300
C1339       C  0.32916227  0.66174657  0.19025833     0.45600
H1340       H  0.33165041  0.66229399  0.20080828    -0.03400
C1341       C  0.32474180  0.66070156  0.16540210     0.45600
H1342       H  0.32317192  0.66065874  0.15484675    -0.03400
C1343       C  0.34555223  0.64113389  0.18394917    -0.17100
C1344       C  0.29054710  0.64360021  0.18541430    -0.16900
C1345       C  0.34807555  0.69928046  0.18415389    -0.17300
C1346       C  0.34328447  0.63987215  0.17088192    -0.17200
C1347       C  0.28769930  0.64349740  0.17228616    -0.16800
C1348       C  0.34567826  0.69943307  0.17112605    -0.17100
C1349       C  0.49730350  0.49699103  0.12020504     0.45600
H1350       H  0.49829306  0.49614312  0.10963421    -0.03400
C1351       C  0.49458343  0.49692627  0.14505055     0.45600
H1352       H  0.49297387  0.49650547  0.15562001    -0.03400
C1353       C  0.47968082  0.51805447  0.12544936    -0.17100
C1354       C  0.47608211  0.95923602  0.12594798    -0.16900
C1355       C  0.03418824  0.51441077  0.12631399    -0.17300
C1356       C  0.47658522  0.51696763  0.13859353    -0.17200
C1357       C  0.47494531  0.95841752  0.13898875    -0.16800
C1358       C  0.03354453  0.51549643  0.13947656    -0.17100
Zn1359     Zn  0.14437059  0.86502187  0.93611302     1.49700
Zn1360     Zn  0.16534928  0.83428120  0.91201570     1.49400
Zn1361     Zn  0.21343433  0.85296777  0.93655240     1.49100
Zn1362     Zn  0.13514827  0.78541519  0.93691012     1.49500
O1363       O  0.16454644  0.83456492  0.93047308    -1.84000
O1364       O  0.12628965  0.88215372  0.92132097    -0.74600
O1365       O  0.21534754  0.85645036  0.90504811    -0.74400
O1366       O  0.22602969  0.89542976  0.94776390    -0.74000
O1367       O  0.14151844  0.86055860  0.90462771    -0.74600
O1368       O  0.18129850  0.90759117  0.94612304    -0.74200
O1369       O  0.24944068  0.86824014  0.92213010    -0.74800
O1370       O  0.16276209  0.77128167  0.94878563    -0.74200
O1371       O  0.13925427  0.78363191  0.90562221    -0.75000
O1372       O  0.21830343  0.81737206  0.94791796    -0.74400
O1373       O  0.11547389  0.74899556  0.92267187    -0.74800
O1374       O  0.09575091  0.78221335  0.94793687    -0.74700
O1375       O  0.10311588  0.83780419  0.94839003    -0.74500
C1376       C  0.12708078  0.87796438  0.90930998     0.77300
C1377       C  0.24605026  0.86824900  0.91005401     0.77800
C1378       C  0.21143686  0.91426343  0.95065731     0.76700
C1379       C  0.19519095  0.78679537  0.95242558     0.77100
C1380       C  0.12051468  0.75254885  0.91066056     0.78200
C1381       C  0.08721506  0.80502869  0.95216033     0.77300
Zn1382     Zn  0.32954969  0.66374243  0.06439193     1.49700
Zn1383     Zn  0.27957861  0.63520540  0.04022417     1.49400
Zn1384     Zn  0.35061315  0.71437081  0.03972776     1.49100
Zn1385     Zn  0.35803632  0.64333826  0.03959281     1.49500
O1386       O  0.32936755  0.66425316  0.04590794    -1.84000
O1387       O  0.27991703  0.63659810  0.07161746    -0.74600
O1388       O  0.26726786  0.66552132  0.02894113    -0.74400
O1389       O  0.36668271  0.74965525  0.05446428    -0.74000
O1390       O  0.24367440  0.61503477  0.05499048    -0.74600
O1391       O  0.35250740  0.71399441  0.07144879    -0.74200
O1392       O  0.31532769  0.72044969  0.02885549    -0.74800
O1393       O  0.39816158  0.67809312  0.02842623    -0.74200
O1394       O  0.27420651  0.59500136  0.02862806    -0.75000
O1395       O  0.39269076  0.72729989  0.02788283    -0.74400
O1396       O  0.32915410  0.60246137  0.02774718    -0.74800
O1397       O  0.37766837  0.62622797  0.05383424    -0.74700
O1398       O  0.35680054  0.64038868  0.07100329    -0.74500
C1399       C  0.24853272  0.61878661  0.06702989     0.77300
C1400       C  0.28390829  0.69811996  0.02499297     0.77800
C1401       C  0.36594089  0.74542380  0.06652282     0.76700
C1402       C  0.40767534  0.70950047  0.02407664     0.77100
C1403       C  0.29673230  0.58665715  0.02410090     0.78200
C1404       C  0.37466858  0.62708040  0.06591055     0.77300
C1405       C  0.20579406  0.77034902  0.96277341    -0.19700
C1406       C  0.18250990  0.75267560  0.97318602     0.36500
C1407       C  0.19485496  0.74100739  0.98354944    -0.25700
C1408       C  0.22989680  0.74692361  0.98376683     0.02900
C1409       C  0.25283596  0.76341958  0.97325997     0.27700
C1410       C  0.24062533  0.77525423  0.96288360    -0.24800
N1411       N  0.14690985  0.74783138  0.97344108    -0.82200
H1412       H  0.17733263  0.72781999  0.99161851     0.13500
C1413       C  0.24182501  0.73445767  0.99489055     0.02900
N1414       N  0.28812428  0.76746464  0.97308889    -0.80800
H1415       H  0.25840085  0.78857010  0.95488843     0.18300
C1416       C  0.23382208  0.69832498  0.99529534    -0.25600
C1417       C  0.24636043  0.68557871  0.00525837     0.36400
C1418       C  0.26729767  0.70967075  0.01505616    -0.19700
C1419       C  0.27438299  0.74569761  0.01480464    -0.24900
C1420       C  0.26133427  0.75821979  0.00488606     0.27800
H1421       H  0.21843374  0.68024623  0.98761704     0.13500
N1422       N  0.23896862  0.64863399  0.00518218    -0.82200
H1423       H  0.29011981  0.76406840  0.02236210     0.18400
N1424       N  0.26712136  0.79459569  0.00505020    -0.80800
H1425       H  0.22262188  0.63447511  0.99747243     0.34000
H1426       H  0.26327456  0.64901880  0.00376995     0.38500
H1427       H  0.28121930  0.80824435  0.01322982     0.34000
H1428       H  0.28335378  0.80852615  0.99726682     0.30700
H1429       H  0.30124248  0.77930039  0.96452992     0.34000
H1430       H  0.30304265  0.78547380  0.98034654     0.30700
H1431       H  0.14931025  0.77352651  0.97398906     0.38500
H1432       H  0.13321306  0.73393332  0.98167780     0.34000
C1433       C  0.28596040  0.56006036  0.01364638    -0.19700
C1434       C  0.25063841  0.53092829  0.01257369     0.36500
C1435       C  0.24104618  0.50869741  0.00173677    -0.25700
C1436       C  0.26607798  0.51505926  0.99207235     0.02900
C1437       C  0.30150396  0.54351390  0.99320631     0.27700
C1438       C  0.31115388  0.56581188  0.00401460    -0.24800
N1439       N  0.22482501  0.52388349  0.02250403    -0.82200
H1440       H  0.21412568  0.98644556  0.00068310     0.13500
C1441       C  0.25520124  0.99086390  0.98097166     0.02900
N1442       N  0.32726120  0.54982348  0.98331800    -0.80800
H1443       H  0.33821827  0.58834988  0.00475890     0.18300
C1444       C  0.24387538  0.00046396  0.96983985    -0.25600
C1445       C  0.23019926  0.97624312  0.95953356     0.36400
C1446       C  0.22858684  0.94236154  0.96045017    -0.19700
C1447       C  0.24107767  0.93345664  0.97146458    -0.24900
C1448       C  0.25400719  0.95727077  0.98182004     0.27800
H1449       H  0.24516042  0.52649313  0.96931752     0.13500
N1450       N  0.21776495  0.98569121  0.94823693    -0.82200
H1451       H  0.23930880  0.90715492  0.97219896     0.18400
N1452       N  0.26478752  0.94709756  0.99336516    -0.80800
H1453       H  0.22076973  0.01157976  0.94913566     0.34000
H1454       H  0.23426668  0.98692400  0.94066955     0.38500
H1455       H  0.26148299  0.92108338  0.99253351     0.34000
H1456       H  0.29220047  0.96478841  0.99456861     0.30700
H1457       H  0.35207031  0.57219722  0.98555765     0.34000
H1458       H  0.33113584  0.52738764  0.98302944     0.30700
H1459       H  0.23374521  0.51683399  0.03071225     0.38500
H1460       H  0.20009681  0.50150905  0.02018417     0.34000
C1461       C  0.06058560  0.79336128  0.96257006    -0.19700
C1462       C  0.03355850  0.80306034  0.96325628     0.36500
C1463       C  0.00906912  0.79017477  0.97352331    -0.25700
C1464       C  0.01198727  0.76891710  0.98320878     0.02900
C1465       C  0.03980111  0.76045982  0.98270140     0.27700
C1466       C  0.06333828  0.77220267  0.97229310    -0.24800
N1467       N  0.03023226  0.82465211  0.95337524    -0.82200
H1468       H  0.98751534  0.79646634  0.97395396     0.13500
C1469       C  0.48544734  0.75444432  0.99369473     0.02900
N1470       N  0.04417150  0.74020794  0.99284606    -0.80800
H1471       H  0.08457932  0.76543930  0.97190437     0.18300
C1472       C  0.46511818  0.71685740  0.99529565    -0.25600
C1473       C  0.44005355  0.70161703  0.00522573     0.36400
C1474       C  0.43525931  0.72463653  0.01384867    -0.19700
C1475       C  0.45556814  0.76237792  0.01216149    -0.24900
C1476       C  0.48089634  0.77751887  0.00222984     0.27800
H1477       H  0.46863017  0.69929269  0.98863673     0.13500
N1478       N  0.41886880  0.66284984  0.00632920    -0.82200
H1479       H  0.45193204  0.78011601  0.01868859     0.18400
N1480       N  0.00224104  0.81611350  0.00090784    -0.80800
H1481       H  0.42647533  0.65005067  0.99945128     0.34000
H1482       H  0.39233095  0.65561931  0.00433536     0.38500
H1483       H  0.99570389  0.82925300  0.00798707     0.34000
H1484       H  0.02893055  0.82303226  0.00242593     0.30700
H1485       H  0.06591684  0.73620375  0.99099790     0.34000
H1486       H  0.55076422  0.75606174  0.00111473     0.30700
H1487       H  0.05236042  0.85070039  0.95401307     0.38500
H1488       H  0.00769245  0.82747556  0.95498602     0.34000
C1489       C  0.45804616  0.92693906  0.11769113    -0.19700
C1490       C  0.42119916  0.91085031  0.11481903     0.36500
C1491       C  0.40572460  0.88096186  0.10657686    -0.25700
C1492       C  0.42635307  0.86710419  0.10119621     0.02900
C1493       C  0.46319088  0.88342900  0.10395538     0.27700
C1494       C  0.47876996  0.91346622  0.11213633    -0.24800
N1495       N  0.39949965  0.92442158  0.12038147    -0.82200
H1496       H  0.37754458  0.86856603  0.10423337     0.13500
C1497       C  0.40934622  0.83608863  0.09235938     0.02900
N1498       N  0.48453171  0.86944608  0.09838606    -0.80800
H1499       H  0.00715209  0.92643199  0.11425540     0.18300
C1500       C  0.41867185  0.84174807  0.07941883    -0.25600
C1501       C  0.40493064  0.81279918  0.07074194     0.36400
C1502       C  0.38089351  0.77736078  0.07513978    -0.19700
C1503       C  0.37132242  0.77201755  0.08815688    -0.24900
C1504       C  0.38523629  0.80103189  0.09680481     0.27800
H1505       H  0.43734312  0.86889183  0.07614039     0.13500
N1506       N  0.41601161  0.81931668  0.05759528    -0.82200
H1507       H  0.35289319  0.74505454  0.09164012     0.18400
N1508       N  0.37601462  0.79486161  0.11013118    -0.80800
H1509       H  0.43288149  0.84697964  0.05592852     0.34000
H1510       H  0.43131126  0.80678958  0.05582649     0.38500
H1511       H  0.35930893  0.76723623  0.11192170     0.34000
H1512       H  0.36104543  0.80743247  0.11237898     0.30700
H1513       H  0.01116125  0.88469529  0.10133243     0.34000
H1514       H  0.47504861  0.84327278  0.10195887     0.30700
H1515       H  0.40883860  0.95077668  0.11716635     0.38500
H1516       H  0.37295826  0.90927909  0.11733931     0.34000
C1517       C  0.46649716  0.53646978  0.11660577    -0.19700
C1518       C  0.47255587  0.57195551  0.11885460     0.36500
C1519       C  0.45772090  0.58688138  0.11051581    -0.25700
C1520       C  0.43825283  0.56764860  0.09978244     0.02900
C1521       C  0.43367847  0.53316322  0.09717423     0.27700
C1522       C  0.44836093  0.51821783  0.10548304    -0.24800
N1523       N  0.49414252  0.59291571  0.12941204    -0.82200
H1524       H  0.46161649  0.61374077  0.11228832     0.13500
C1525       C  0.42257759  0.58374602  0.09128380     0.02900
N1526       N  0.41374778  0.51332728  0.08615787    -0.80800
H1527       H  0.44509042  0.99194556  0.10328042     0.18300
C1528       C  0.43721053  0.59546697  0.07908804    -0.25600
C1529       C  0.42235341  0.60999746  0.07059259     0.36400
C1530       C  0.39183713  0.61221732  0.07438245    -0.19700
C1531       C  0.37745153  0.60049940  0.08667537    -0.24900
C1532       C  0.39244795  0.58616430  0.09514152     0.27800
H1533       H  0.46046817  0.59346083  0.07625361     0.13500
N1534       N  0.43852196  0.62299873  0.05828314    -0.82200
H1535       H  0.35402680  0.60200569  0.08964547     0.18400
N1536       N  0.37704309  0.57367399  0.10758704    -0.80800
H1537       H  0.46045046  0.61895469  0.05699175     0.34000
H1538       H  0.44864912  0.65101914  0.05812930     0.38500
H1539       H  0.35503802  0.57754468  0.10898194     0.34000
H1540       H  0.36723383  0.54572600  0.10792876     0.30700
H1541       H  0.41286369  0.98837604  0.08559837     0.34000
H1542       H  0.38727475  0.50756249  0.08742221     0.30700
H1543       H  0.52010571  0.59736947  0.12801719     0.38500
H1544       H  0.49593787  0.61837650  0.12967343     0.34000
C1545       C  0.06714495  0.52960048  0.11812041    -0.19700
C1546       C  0.07049770  0.55069360  0.10721395     0.36500
C1547       C  0.09990395  0.56162694  0.09899583    -0.25700
C1548       C  0.12710435  0.55365944  0.10169971     0.02900
C1549       C  0.12493797  0.53414678  0.11286764     0.27700
C1550       C  0.09454453  0.52157694  0.12083030    -0.24800
N1551       N  0.04461567  0.56196046  0.10469104    -0.82200
H1552       H  0.10228321  0.57754709  0.09059583     0.13500
C1553       C  0.15852149  0.56818017  0.09300627     0.02900
N1554       N  0.15354697  0.52726193  0.11605644    -0.80800
H1555       H  0.09210229  0.50526285  0.12911040     0.18300
C1556       C  0.19078905  0.59769922  0.09701940    -0.25600
C1557       C  0.22003863  0.61528502  0.08862253     0.36400
C1558       C  0.21741463  0.60216656  0.07598546    -0.19700
C1559       C  0.18484075  0.57252997  0.07199183    -0.24900
C1560       C  0.15533735  0.55553132  0.08036697     0.27800
H1561       H  0.19263815  0.60793300  0.10662917     0.13500
N1562       N  0.25193708  0.64711062  0.09280550    -0.82200
H1563       H  0.18243126  0.56242320  0.06234217     0.18400
N1564       N  0.12202316  0.52566285  0.07609228    -0.80800
H1565       H  0.24956274  0.65287215  0.10234369     0.34000
H1566       H  0.25433849  0.66899893  0.08746070     0.38500
H1567       H  0.12390276  0.51980256  0.06652522     0.34000
H1568       H  0.11739055  0.50283421  0.08136075     0.30700
H1569       H  0.14809607  0.51309604  0.12467646     0.34000
H1570       H  0.15461301  0.51040183  0.10899587     0.30700
H1571       H  0.04692029  0.57979598  0.11196830     0.38500
H1572       H  0.05052962  0.57661771  0.09617057     0.34000
C1573       C  0.35512958  0.61751287  0.16349029    -0.19700
C1574       C  0.38719678  0.63370911  0.15637042     0.36500
C1575       C  0.40311565  0.61287733  0.15274329    -0.25700
C1576       C  0.38838518  0.57648080  0.15648934     0.02900
C1577       C  0.35563110  0.55997973  0.16337682     0.27700
C1578       C  0.33901473  0.58039674  0.16639944    -0.24800
N1579       N  0.40465147  0.67169024  0.15352294    -0.82200
H1580       H  0.42809943  0.62552764  0.14744306     0.13500
C1581       C  0.40851233  0.55717558  0.15330965     0.02900
N1582       N  0.33974417  0.52366057  0.16828779    -0.80800
H1583       H  0.31473909  0.56791830  0.17209660     0.18300
C1584       C  0.44166917  0.56796236  0.15917456    -0.25600
C1585       C  0.46412676  0.55435371  0.15516530     0.36400
C1586       C  0.45240002  0.52794893  0.14532171    -0.19700
C1587       C  0.41782453  0.51518524  0.14026268    -0.24900
C1588       C  0.39647962  0.53045059  0.14374626     0.27800
H1589       H  0.45106563  0.58867991  0.16649511     0.13500
N1590       N  0.99900553  0.56949887  0.16084715    -0.82200
H1591       H  0.40851013  0.99493490  0.13280347     0.18400
N1592       N  0.36396582  0.52084452  0.13694035    -0.80800
H1593       H  0.01261011  0.59723109  0.15881255     0.34000
H1594       H  0.01421990  0.55920241  0.15674603     0.38500
H1595       H  0.36048066  0.00303125  0.12948054     0.34000
H1596       H  0.34248954  0.50712880  0.14322104     0.30700
H1597       H  0.31494199  0.50831598  0.16385566     0.34000
H1598       H  0.35515670  0.51150088  0.16619838     0.30700
H1599       H  0.41349189  0.68556026  0.16217093     0.38500
H1600       H  0.42755902  0.67929407  0.14796648     0.34000
C1601       C  0.35918356  0.73420592  0.16389085    -0.19700
C1602       C  0.34370846  0.75629688  0.16592266     0.36500
C1603       C  0.36248441  0.79311065  0.16248581    -0.25700
C1604       C  0.39509668  0.80802254  0.15568963     0.02900
C1605       C  0.40794681  0.78418321  0.15212026     0.27700
C1606       C  0.39066238  0.74811772  0.15661378    -0.24800
N1607       N  0.30857890  0.74125184  0.17136635    -0.82200
H1608       H  0.35152815  0.81004020  0.16547059     0.13500
C1609       C  0.41540791  0.84813308  0.15258431     0.02900
N1610       N  0.43829305  0.79619136  0.14381671    -0.80800
H1611       H  0.40241483  0.73134089  0.15458021     0.18300
C1612       C  0.45312973  0.86748559  0.15337894    -0.25600
C1613       C  0.47326338  0.90396366  0.14944877     0.36400
C1614       C  0.45561450  0.92319805  0.14603953    -0.19700
C1615       C  0.41811583  0.90524445  0.14657161    -0.24900
C1616       C  0.39785187  0.86767829  0.14898673     0.27800
H1617       H  0.46723454  0.85386190  0.15668421     0.13500
N1618       N  0.01161151  0.92127579  0.14859392    -0.82200
H1619       H  0.40452753  0.92010243  0.14412036     0.18400
N1620       N  0.35973681  0.84922754  0.14710837    -0.80800
H1621       H  0.02061278  0.90363371  0.15150867     0.34000
H1622       H  0.01874752  0.92712497  0.13898006     0.38500
H1623       H  0.35117247  0.86742737  0.14442595     0.34000
H1624       H  0.35397127  0.83133330  0.13947422     0.30700
H1625       H  0.43022538  0.77963820  0.13572499     0.34000
H1626       H  0.45769144  0.79250014  0.14851467     0.30700
H1627       H  0.30964326  0.75758476  0.17899285     0.38500
H1628       H  0.29194326  0.74303991  0.16448643     0.34000
C1629       C  0.06743358  0.53812197  0.14690772    -0.19700
C1630       C  0.08069574  0.52312264  0.15596695     0.36500
C1631       C  0.11687126  0.54311860  0.15989234    -0.25700
C1632       C  0.13979296  0.57825067  0.15526452     0.02900
C1633       C  0.12565932  0.59442265  0.14709626     0.27700
C1634       C  0.08972604  0.57433145  0.14309941    -0.24800
N1635       N  0.05814211  0.98735650  0.16070785    -0.82200
H1636       H  0.12748449  0.53104593  0.16643173     0.13500
C1637       C  0.17866410  0.59729544  0.15875072     0.02900
N1638       N  0.14837551  0.63039846  0.14227118    -0.80800
H1639       H  0.07952746  0.58630130  0.13634330     0.18300
C1640       C  0.20154366  0.58585630  0.15341450    -0.25600
C1641       C  0.23805346  0.60206471  0.15694175     0.36400
C1642       C  0.25215459  0.63078362  0.16584627    -0.19700
C1643       C  0.22957618  0.64348872  0.17055748    -0.24900
C1644       C  0.19286762  0.62621285  0.16751787     0.27800
H1645       H  0.19059583  0.56357880  0.14668855     0.13500
N1646       N  0.26005722  0.58793216  0.15212599    -0.82200
H1647       H  0.24015948  0.66542633  0.17742319     0.18400
N1648       N  0.16964283  0.63692735  0.17371658    -0.80800
H1649       H  0.24494309  0.56520817  0.14641920     0.34000
H1650       H  0.27927614  0.60752732  0.14610329     0.38500
H1651       H  0.18414390  0.65833582  0.18001778     0.34000
H1652       H  0.15141638  0.61506790  0.17928431     0.30700
H1653       H  0.13435041  0.63759099  0.13585439     0.34000
H1654       H  0.15524534  0.64836339  0.14992437     0.30700
H1655       H  0.03787274  0.98779510  0.16612105     0.38500
H1656       H  0.07230745  0.97987220  0.16694539     0.34000
C1657       C  0.45378730  0.55846278  0.68030832    -0.19700
C1658       C  0.41928574  0.53897758  0.67482494     0.36500
C1659       C  0.41130980  0.55221660  0.66379874    -0.25700
C1660       C  0.43728044  0.58406982  0.65790194     0.02900
C1661       C  0.47197537  0.60309282  0.66306505     0.27700
C1662       C  0.47971436  0.59043991  0.67429008    -0.24800
N1663       N  0.39231733  0.00568214  0.68037210    -0.82200
H1664       H  0.38451385  0.53766960  0.65987915     0.13500
C1665       C  0.42694699  0.59882603  0.64696667     0.02900
N1666       N  0.49925908  0.63501439  0.65679604    -0.80800
H1667       H  0.50654658  0.60529284  0.67813956     0.18300
C1668       C  0.43011697  0.63309067  0.64824166    -0.25600
C1669       C  0.41797594  0.64729114  0.63868397     0.36400
C1670       C  0.40180810  0.62646110  0.62764357    -0.19700
C1671       C  0.40006750  0.59277892  0.62609435    -0.24900
C1672       C  0.41246675  0.57866744  0.63570681     0.27800
H1673       H  0.44131428  0.64844920  0.65691482     0.13500
N1674       N  0.42154268  0.68259827  0.64023968    -0.82200
H1675       H  0.38773885  0.57684933  0.61762535     0.18400
N1676       N  0.40988378  0.54380192  0.63421107    -0.80800
H1677       H  0.43357940  0.69403791  0.64895660     0.34000
H1678       H  0.43889965  0.69934635  0.63310055     0.38500
H1679       H  0.39831884  0.53236673  0.62543558     0.34000
H1680       H  0.43595767  0.54783247  0.63401986     0.30700
H1681       H  0.02357608  0.64537899  0.66160308     0.34000
H1682       H  0.50399250  0.62713733  0.64787596     0.30700
H1683       H  0.38431404  0.98541607  0.67344700     0.38500
H1684       H  0.37020555  0.00867157  0.68266581     0.34000
C1685       C  0.43993640  0.89880437  0.68080638    -0.19700
C1686       C  0.41369016  0.89902142  0.67270095     0.36500
C1687       C  0.40269685  0.87688863  0.66183165    -0.25700
C1688       C  0.41769107  0.85512820  0.65877236     0.02900
C1689       C  0.44322274  0.85421827  0.66692647     0.27700
C1690       C  0.45429415  0.87627453  0.67782295    -0.24800
N1691       N  0.39928583  0.92265696  0.67519539    -0.82200
H1692       H  0.38289456  0.87716500  0.65552207     0.13500
C1693       C  0.40538232  0.83232458  0.64721545     0.02900
N1694       N  0.45766540  0.83081195  0.66410658    -0.80800
H1695       H  0.47443748  0.87607405  0.68396440     0.18300
C1696       C  0.42940333  0.83874450  0.63711054    -0.25600
C1697       C  0.41920534  0.81529084  0.62652604     0.36400
C1698       C  0.38439193  0.78503787  0.62619655    -0.19700
C1699       C  0.35989601  0.78018567  0.63595848    -0.24900
C1700       C  0.37003880  0.80340918  0.64648229     0.27800
H1701       H  0.45641629  0.86145687  0.63769375     0.13500
N1702       N  0.44436947  0.82125233  0.61646412    -0.82200
H1703       H  0.33302479  0.75711998  0.63562726     0.18400
N1704       N  0.34498744  0.79702744  0.65664564    -0.80800
H1705       H  0.46861961  0.84494718  0.61814093     0.34000
H1706       H  0.44992657  0.79990113  0.61667583     0.38500
H1707       H  0.31998588  0.77473688  0.65457350     0.34000
H1708       H  0.35433655  0.79024596  0.66480986     0.30700
H1709       H  0.47636259  0.83356002  0.67101060     0.34000
H1710       H  0.43663433  0.80410519  0.66470558     0.30700
H1711       H  0.42003534  0.94927863  0.67390465     0.38500
H1712       H  0.37960532  0.91858550  0.66852384     0.34000
C1713       C  0.10559300  0.55169547  0.68024505    -0.19700
C1714       C  0.12192173  0.53137210  0.67622539     0.36500
C1715       C  0.14471470  0.54281289  0.66552737    -0.25700
C1716       C  0.15183102  0.57411123  0.65876013     0.02900
C1717       C  0.13577068  0.59450502  0.66267561     0.27700
C1718       C  0.11288674  0.58315772  0.67337676    -0.24800
N1719       N  0.11549608  0.49925706  0.68298785    -0.82200
H1720       H  0.15743993  0.52745760  0.66249811     0.13500
C1721       C  0.17850833  0.58662679  0.64825010     0.02900
N1722       N  0.14285770  0.62666206  0.65578990    -0.80800
H1723       H  0.10021164  0.59869895  0.67621322     0.18300
C1724       C  0.16818992  0.58787059  0.63564581    -0.25600
C1725       C  0.19340012  0.59996789  0.62557328     0.36400
C1726       C  0.22973745  0.61137568  0.62826765    -0.19700
C1727       C  0.23942945  0.60907365  0.64092777    -0.24900
C1728       C  0.21443867  0.59733208  0.65090267     0.27800
H1729       H  0.14037896  0.57934710  0.63368821     0.13500
N1730       N  0.18226086  0.60138327  0.61277639    -0.82200
H1731       H  0.26700251  0.61733734  0.64319770     0.18400
N1732       N  0.22553776  0.59695775  0.66381116    -0.80800
H1733       H  0.15508287  0.59370202  0.61259143     0.34000
H1734       H  0.18487357  0.58199746  0.60743280     0.38500
H1735       H  0.25291161  0.60550858  0.66416607     0.34000
H1736       H  0.22183624  0.61591463  0.66899610     0.30700
H1737       H  0.12873338  0.63843071  0.65982203     0.34000
H1738       H  0.17007115  0.64546051  0.65680717     0.30700
H1739       H  0.12665843  0.50723741  0.69207664     0.38500
H1740       H  0.12880249  0.48712919  0.67859100     0.34000
C1741       C  0.28316603  0.56153566  0.56790886    -0.19700
C1742       C  0.26649314  0.56333964  0.55656191     0.36500
C1743       C  0.25240998  0.53382389  0.54817297    -0.25700
C1744       C  0.25397161  0.00243774  0.55107434     0.02900
C1745       C  0.27116996  0.00080646  0.56228312     0.27700
C1746       C  0.28619727  0.53076108  0.57049218    -0.24800
N1747       N  0.26513074  0.59556408  0.55335459    -0.82200
H1748       H  0.23976684  0.53506683  0.53940077     0.13500
C1749       C  0.23707058  0.97137110  0.54226731     0.02900
N1750       N  0.27288250  0.96866683  0.56529535    -0.80800
H1751       H  0.29938793  0.52971131  0.57914709     0.18300
C1752       C  0.25813995  0.95856071  0.53645305    -0.25600
C1753       C  0.24262720  0.92857316  0.52830673     0.36400
C1754       C  0.20564392  0.91129042  0.52597509    -0.19700
C1755       C  0.18503571  0.92540036  0.53111361    -0.24900
C1756       C  0.20017865  0.95486419  0.53950220     0.27800
H1757       H  0.28666653  0.97182734  0.53828634     0.13500
N1758       N  0.26448929  0.91606026  0.52227238    -0.82200
H1759       H  0.15713488  0.91346142  0.52852460     0.18400
N1760       N  0.17825413  0.96775495  0.54536688    -0.80800
H1761       H  0.27830441  0.91073198  0.52937318     0.34000
H1762       H  0.28353535  0.93716908  0.51665993     0.38500
H1763       H  0.15175185  0.95266505  0.54225335     0.34000
H1764       H  0.17800437  0.46347624  0.55507431     0.30700
H1765       H  0.28661238  0.97198772  0.57385089     0.34000
H1766       H  0.24666891  0.94768784  0.56679640     0.30700
H1767       H  0.24698626  0.59729887  0.55957637     0.38500
H1768       H  0.25468780  0.59343276  0.54419087     0.34000
C1769       C  0.09925641  0.80205239  0.52696840    -0.19700
C1770       C  0.09418732  0.81916522  0.53769497     0.36500
C1771       C  0.06374887  0.80040027  0.54532037    -0.25700
C1772       C  0.03791807  0.76491184  0.54239260     0.02900
C1773       C  0.04261555  0.74728242  0.53181453     0.27700
C1774       C  0.07365036  0.76586321  0.52430290    -0.24800
N1775       N  0.11928319  0.85590953  0.54076624    -0.82200
H1776       H  0.05991820  0.81386606  0.55347992     0.13500
C1777       C  0.00581792  0.74732842  0.55048822     0.02900
N1778       N  0.01577648  0.71088335  0.52871026    -0.80800
H1779       H  0.07788011  0.75206154  0.51636166     0.18300
C1780       C  0.47580549  0.75014366  0.54700010    -0.25600
C1781       C  0.44640299  0.73809863  0.55530635     0.36400
C1782       C  0.44732863  0.72284327  0.56716470    -0.19700
C1783       C  0.47698845  0.71905400  0.57036096    -0.24900
C1784       C  0.00650552  0.73147248  0.56217973     0.27800
H1785       H  0.47577134  0.76254228  0.53796830     0.13500
N1786       N  0.41534780  0.74034610  0.55160033    -0.82200
H1787       H  0.47734923  0.70698469  0.57942722     0.18400
N1788       N  0.03755113  0.72902516  0.56572089    -0.80800
H1789       H  0.41824506  0.75012962  0.54226731     0.34000
H1790       H  0.41396294  0.75957211  0.55744419     0.38500
H1791       H  0.03392589  0.71707462  0.57472209     0.34000
H1792       H  0.04004681  0.71166803  0.55923899     0.30700
H1793       H  0.02308218  0.70208067  0.52049798     0.34000
H1794       H  0.01485002  0.69406943  0.53615908     0.30700
H1795       H  0.12885191  0.85654817  0.54997706     0.38500
H1796       H  0.10562965  0.87059200  0.54086219     0.34000
C1797       C  0.20218125  0.80464546  0.52811715    -0.19700
C1798       C  0.19137157  0.76729980  0.52801326     0.36500
C1799       C  0.20816399  0.75441850  0.53621917    -0.25700
C1800       C  0.23424339  0.77744986  0.54492927     0.02900
C1801       C  0.24376260  0.81427896  0.54549303     0.27700
C1802       C  0.22750471  0.82742462  0.53708654    -0.24800
N1803       N  0.16242400  0.74139578  0.52027860    -0.82200
H1804       H  0.20034308  0.72593495  0.53594476     0.13500
C1805       C  0.25067219  0.76216329  0.55352821     0.02900
N1806       N  0.26958660  0.83801290  0.55464803    -0.80800
H1807       H  0.23454119  0.85559144  0.53754464     0.18300
C1808       C  0.28769748  0.77548169  0.55296473    -0.25600
C1809       C  0.30387354  0.76002409  0.56038752     0.36400
C1810       C  0.28243400  0.73082084  0.56868688    -0.19700
C1811       C  0.24533020  0.71767633  0.56920574    -0.24900
C1812       C  0.22931919  0.73330834  0.56182503     0.27800
H1813       H  0.30386776  0.79743812  0.54645544     0.13500
N1814       N  0.34175836  0.77337233  0.55927864    -0.82200
H1815       H  0.22876855  0.69551004  0.57557558     0.18400
N1816       N  0.19147393  0.72026423  0.56278805    -0.80800
H1817       H  0.35353747  0.79528055  0.55295477     0.34000
H1818       H  0.34519598  0.75275830  0.55524903     0.38500
H1819       H  0.17952851  0.69879289  0.56926997     0.34000
H1820       H  0.18813193  0.74126146  0.56652374     0.30700
H1821       H  0.27367423  0.86431335  0.55374077     0.34000
H1822       H  0.25874836  0.82894381  0.56374173     0.30700
H1823       H  0.14960057  0.75304181  0.51534928     0.38500
H1824       H  0.17315970  0.73117714  0.51354592     0.34000
C1825       C  0.20446688  0.91296581  0.49790504    -0.19700
C1826       C  0.23851877  0.92786349  0.49210969     0.36500
C1827       C  0.25688529  0.96490689  0.48852016    -0.25700
C1828       C  0.24254958  0.98788899  0.49108630     0.02900
C1829       C  0.20821044  0.97250139  0.49687004     0.27700
C1830       C  0.18925774  0.93525553  0.49972447    -0.24800
N1831       N  0.25510563  0.90586244  0.49053512    -0.82200
H1832       H  0.28276695  0.97598597  0.48388509     0.13500
C1833       C  0.26273819  0.52745421  0.48735487     0.02900
N1834       N  0.19329064  0.99503940  0.50042935    -0.80800
H1835       H  0.16343352  0.92403733  0.50441410     0.18300
C1836       C  0.24425069  0.54245220  0.48108977    -0.25600
C1837       C  0.26106991  0.57893306  0.47743759     0.36400
C1838       C  0.29863035  0.60126208  0.47903190    -0.19700
C1839       C  0.31728382  0.58692056  0.48561143    -0.24900
C1840       C  0.29962309  0.55054500  0.49003172     0.27800
H1841       H  0.21613131  0.52554195  0.47886779     0.13500
N1842       N  0.23889273  0.59224018  0.47216441    -0.82200
H1843       H  0.34591966  0.60372555  0.48690489     0.18400
N1844       N  0.31908105  0.53702696  0.49715084    -0.80800
H1845       H  0.22793279  0.57837898  0.46365043     0.34000
H1846       H  0.25342503  0.61979316  0.47007535     0.38500
H1847       H  0.34575612  0.55725649  0.49829315     0.34000
H1848       H  0.30782116  0.53044192  0.50629518     0.30700
H1849       H  0.16797732  0.97962954  0.50458669     0.34000
H1850       H  0.20966920  0.51288576  0.50739408     0.30700
H1851       H  0.23962561  0.88524397  0.48408617     0.38500
H1852       H  0.28052761  0.92097072  0.48643085     0.34000
C1853       C  0.41438718  0.71402041  0.47585434    -0.19700
C1854       C  0.44110204  0.74928784  0.47176908     0.36500
C1855       C  0.47638058  0.76433474  0.47609574    -0.25700
C1856       C  0.48642005  0.74664986  0.48501309     0.02900
C1857       C  0.45960227  0.71334520  0.49017339     0.27700
C1858       C  0.42411354  0.69703322  0.48534125    -0.24800
N1859       N  0.43335161  0.77200455  0.46388958    -0.82200
H1860       H  0.99623519  0.79082066  0.47266026     0.13500
C1861       C  0.02436478  0.76577973  0.48963058     0.02900
N1862       N  0.46790672  0.69718034  0.50071822    -0.80800
H1863       H  0.40407461  0.67077377  0.48889798     0.18300
C1864       C  0.03580626  0.79674795  0.49723595    -0.25600
C1865       C  0.07157485  0.81708664  0.50135683     0.36400
C1866       C  0.09652340  0.80556637  0.49827775    -0.19700
C1867       C  0.08565320  0.77588359  0.49003012    -0.24900
C1868       C  0.05005461  0.75633012  0.48544967     0.27800
H1869       H  0.01663069  0.80515171  0.49994528     0.13500
N1870       N  0.08253708  0.84892039  0.50903207    -0.82200
H1871       H  0.10445816  0.76701965  0.48752723     0.18400
N1872       N  0.04036804  0.72790301  0.47623290    -0.80800
H1873       H  0.06106362  0.85352213  0.51063477     0.34000
H1874       H  0.10170044  0.87104431  0.50382606     0.38500
H1875       H  0.06262824  0.72528802  0.47381070     0.34000
H1876       H  0.02183644  0.70342413  0.48042118     0.30700
H1877       H  0.44501523  0.67363192  0.50372422     0.34000
H1878       H  0.48607928  0.68922419  0.49760304     0.30700
H1879       H  0.41284987  0.77471792  0.46820794     0.38500
H1880       H  0.42567570  0.76125111  0.45487102     0.34000
C1881       C  0.30636936  0.71301132  0.48142038    -0.19700
C1882       C  0.32466622  0.75091227  0.48278194     0.36500
C1883       C  0.30645037  0.76891714  0.48693910    -0.25700
C1884       C  0.27006311  0.74980367  0.49037910     0.02900
C1885       C  0.25248069  0.71139586  0.49028599     0.27700
C1886       C  0.27062497  0.69348686  0.48561243    -0.24800
N1887       N  0.36178037  0.77153816  0.47962088    -0.82200
H1888       H  0.32072413  0.79824511  0.48694973     0.13500
C1889       C  0.25069470  0.77034635  0.49353293     0.02900
N1890       N  0.21613428  0.69073110  0.49473510    -0.80800
H1891       H  0.25633528  0.66429066  0.48472638     0.18300
C1892       C  0.21733776  0.76022548  0.48785478    -0.25600
C1893       C  0.19772054  0.77795622  0.49088476     0.36400
C1894       C  0.21191741  0.80702506  0.49960155    -0.19700
C1895       C  0.24675935  0.81937879  0.50425664    -0.24900
C1896       C  0.26564361  0.80076011  0.50175395     0.27800
H1897       H  0.20626151  0.73800914  0.48111292     0.13500
N1898       N  0.16287441  0.76544346  0.48555283    -0.82200
H1899       H  0.25823024  0.84225378  0.51072896     0.18400
N1900       N  0.29920696  0.81177866  0.50801928    -0.80800
H1901       H  0.15539124  0.74248352  0.47991406     0.34000
H1902       H  0.16480859  0.78565226  0.47938853     0.38500
H1903       H  0.30647494  0.83462331  0.51369762     0.34000
H1904       H  0.29550889  0.79087238  0.51419412     0.30700
H1905       H  0.20709710  0.66297068  0.49401861     0.34000
H1906       H  0.21595182  0.69635521  0.50444090     0.30700
H1907       H  0.37558502  0.78532528  0.48783908     0.38500
H1908       H  0.36496200  0.79094977  0.47287054     0.34000
C1909       C  0.43162202  0.96172301  0.86166851    -0.19700
C1910       C  0.42821495  0.97942419  0.87251025     0.36500
C1911       C  0.39928451  0.96068562  0.88085807    -0.25700
C1912       C  0.37367491  0.92444684  0.87858947     0.02900
C1913       C  0.37784546  0.90610285  0.86807156     0.27700
C1914       C  0.40686327  0.92497726  0.85969370    -0.24800
N1915       N  0.45309886  0.01687955  0.87477103    -0.82200
H1916       H  0.39603576  0.97492221  0.88889081     0.13500
C1917       C  0.34102037  0.90743474  0.88661832     0.02900
N1918       N  0.35251733  0.86852099  0.86594605    -0.80800
H1919       H  0.41019161  0.91105599  0.85158210     0.18300
C1920       C  0.30814632  0.89823860  0.88096717    -0.25600
C1921       C  0.27690883  0.88606589  0.88833751     0.36400
C1922       C  0.27839787  0.88187529  0.90172355    -0.19700
C1923       C  0.31151266  0.89056720  0.90728345    -0.24900
C1924       C  0.34281610  0.90345675  0.89987745     0.27800
H1925       H  0.30720167  0.90203434  0.87077635     0.13500
N1926       N  0.24409550  0.87888870  0.88224379    -0.82200
H1927       H  0.31312878  0.88743084  0.91747324     0.18400
N1928       N  0.37647855  0.91274020  0.90574842    -0.80800
H1929       H  0.24750095  0.88204880  0.87235131     0.34000
H1930       H  0.23799650  0.89862908  0.88535650     0.38500
H1931       H  0.37333167  0.90854770  0.91561381     0.34000
H1932       H  0.38470337  0.89499039  0.90220758     0.30700
H1933       H  0.35932542  0.85914656  0.85776385     0.34000
H1934       H  0.35445954  0.85389242  0.87363644     0.30700
H1935       H  0.46484963  0.01906905  0.88367568     0.38500
H1936       H  0.43872036  0.03081136  0.87521541     0.34000
C1937       C  0.03550026  0.96573216  0.85696277    -0.19700
C1938       C  0.07264554  0.98429829  0.85967389     0.36500
C1939       C  0.08667905  0.96793902  0.86762491    -0.25700
C1940       C  0.06458336  0.93390312  0.87312953     0.02900
C1941       C  0.02766353  0.91525363  0.87035150     0.27700
C1942       C  0.01350112  0.93142542  0.86229029    -0.24800
N1943       N  0.09657379  0.52027854  0.85505435    -0.82200
H1944       H  0.11498088  0.98252046  0.86989108     0.13500
C1945       C  0.08032534  0.91914071  0.88230174     0.02900
N1946       N  0.00470327  0.88026855  0.87588765    -0.80800
H1947       H  0.48507483  0.91776626  0.86044534     0.18300
C1948       C  0.06842931  0.91331292  0.89501119    -0.25600
C1949       C  0.08363197  0.90074861  0.90415920     0.36400
C1950       C  0.11112739  0.89336578  0.90041824    -0.19700
C1951       C  0.12290483  0.89934836  0.88764318    -0.24900
C1952       C  0.10789283  0.91220318  0.87857844     0.27800
H1953       H  0.04749892  0.91914841  0.89783538     0.13500
N1954       N  0.07056768  0.89474889  0.91708134    -0.82200
H1955       H  0.14401681  0.89395485  0.88467493     0.18400
N1956       N  0.12035769  0.91804324  0.86558109    -0.80800
H1957       H  0.04854634  0.89882821  0.91792261     0.34000
H1958       H  0.09068104  0.91460570  0.92275003     0.38500
H1959       H  0.14104565  0.91197901  0.86442237     0.34000
H1960       H  0.09919493  0.89979386  0.85988202     0.30700
H1961       H  0.47827839  0.87065558  0.87312045     0.34000
H1962       H  0.01276080  0.86241236  0.87230326     0.30700
H1963       H  0.08337505  0.53020740  0.84943408     0.38500
H1964       H  0.11573937  0.51893457  0.84925515     0.34000
C1965       C  0.10477499  0.72035738  0.90218071    -0.19700
C1966       C  0.08769507  0.68439960  0.90692342     0.36500
C1967       C  0.07333887  0.65536759  0.89827372    -0.25700
C1968       C  0.07670392  0.66146123  0.88508529     0.02900
C1969       C  0.09398934  0.69703940  0.88030682     0.27700
C1970       C  0.10766404  0.72606487  0.88888769    -0.24800
N1971       N  0.08531014  0.67729786  0.92040745    -0.82200
H1972       H  0.05983994  0.62776908  0.90180760     0.13500
C1973       C  0.06183635  0.63025174  0.87634886     0.02900
N1974       N  0.09854618  0.70355364  0.86677580    -0.88600
H1975       H  0.12078408  0.75336132  0.88509458     0.18300
C1976       C  0.03121502  0.62245607  0.86934960    -0.25600
C1977       C  0.01652709  0.59350662  0.86076717     0.36400
C1978       C  0.03230705  0.57144048  0.85930497    -0.19700
C1979       C  0.06264098  0.57896096  0.86650217    -0.24900
C1980       C  0.07797830  0.60855636  0.87489106     0.27800
H1981       H  0.01860514  0.63896493  0.87057175     0.13500
N1982       N  0.48530326  0.58643907  0.85376962    -0.82200
H1983       H  0.07434303  0.56168487  0.86564121     0.18400
N1984       N  0.11021933  0.61713150  0.88169709    -0.80800
H1985       H  0.49103685  0.60979174  0.84864468     0.34000
H1986       H  0.46520562  0.58202105  0.86036506     0.38500
H1987       H  0.11956202  0.59949813  0.87906086     0.34000
H1988       H  0.10381206  0.61258240  0.89139229     0.30700
H1989       H  0.11354887  0.73128297  0.86487243     0.34000
H1990       H  0.07326390  0.69478926  0.86281418     0.30700
H1991       H  0.11131009  0.68612390  0.92369160     0.38500
H1992       H  0.07082702  0.64946516  0.92220541     0.34000
C1993       C  0.24031774  0.87088732  0.78640579    -0.19700
C1994       C  0.25919279  0.85232714  0.78360749     0.36500
C1995       C  0.28961325  0.86866843  0.77576965    -0.25700
C1996       C  0.30088545  0.90278917  0.77032242     0.02900
C1997       C  0.28190720  0.92125139  0.77308622     0.27700
C1998       C  0.25178583  0.90506912  0.78102430    -0.24800
N1999       N  0.24693357  0.81618852  0.78800331    -0.82200
H2000       H  0.30378530  0.85414731  0.77353594     0.13500
C2001       C  0.33150140  0.91806643  0.76132567     0.02900
N2002       N  0.29268661  0.95640852  0.76793955    -0.80800
H2003       H  0.23675102  0.91894171  0.78278658     0.18300
C2004       C  0.32487433  0.91677667  0.74821428    -0.25600
C2005       C  0.35308878  0.93063640  0.73928097     0.36400
C2006       C  0.38900912  0.94707338  0.74362752    -0.19700
C2007       C  0.39526741  0.94792382  0.75686686    -0.24900
C2008       C  0.36688812  0.93331602  0.76572032     0.27800
H2009       H  0.29740515  0.90437572  0.74494511     0.13500
N2010       N  0.34513618  0.92761250  0.72587483    -0.82200
H2011       H  0.42245190  0.96002613  0.76038582     0.18400
N2012       N  0.37376929  0.93366811  0.77915185    -0.80800
H2013       H  0.31740398  0.41622986  0.72437955     0.34000
H2014       H  0.35217875  0.40945706  0.72201100     0.38500
H2015       H  0.40127575  0.94549520  0.78084465     0.34000
H2016       H  0.36523234  0.95011413  0.78361922     0.30700
H2017       H  0.29180863  0.95464862  0.75798871     0.34000
H2018       H  0.31913417  0.97389833  0.77068389     0.30700
H2019       H  0.24529746  0.81591209  0.79792729     0.38500
H2020       H  0.22124820  0.79971221  0.78433193     0.34000
C2021       C  0.13289820  0.86604677  0.78118484    -0.19700
C2022       C  0.09613833  0.85542245  0.78189058     0.36500
C2023       C  0.08174875  0.86962726  0.77310334    -0.25700
C2024       C  0.10308567  0.89333686  0.76344760     0.02900
C2025       C  0.13926278  0.90236419  0.76227899     0.27700
C2026       C  0.15374904  0.88832974  0.77111314    -0.24800
N2027       N  0.07358183  0.83023840  0.79148794    -0.82200
H2028       H  0.05386902  0.86257736  0.77386456     0.13500
C2029       C  0.08750577  0.90974979  0.75499461     0.02900
N2030       N  0.16116161  0.92612914  0.75224047    -0.80800
H2031       H  0.18169637  0.89574654  0.77038403     0.18300
C2032       C  0.10067009  0.94720019  0.75567787    -0.25600
C2033       C  0.08567030  0.96377979  0.74825832     0.36400
C2034       C  0.05737578  0.94244620  0.73988387    -0.19700
C2035       C  0.04441021  0.90505193  0.73908784    -0.24900
C2036       C  0.05895455  0.88834550  0.74670791     0.27800
H2037       H  0.12237367  0.96339374  0.76217002     0.13500
N2038       N  0.09889587  0.50208470  0.74922919    -0.82200
H2039       H  0.02241598  0.88881699  0.73270755     0.18400
N2040       N  0.04476975  0.84981410  0.74616227    -0.80800
H2041       H  0.11951973  0.51371898  0.75593086     0.34000
H2042       H  0.11018534  0.51363537  0.74040684     0.38500
H2043       H  0.02348331  0.83797913  0.73970996     0.34000
H2044       H  0.06491324  0.84519569  0.74260181     0.30700
H2045       H  0.18725836  0.93037610  0.75279486     0.34000
H2046       H  0.15066887  0.91303394  0.74356126     0.30700
H2047       H  0.07253423  0.80549878  0.78974448     0.38500
H2048       H  0.04737450  0.82564367  0.79079405     0.34000
C2049       C  0.13583083  0.76520011  0.78410908    -0.19700
C2050       C  0.14357526  0.73657355  0.78562653     0.36500
C2051       C  0.12770794  0.70690472  0.77733432    -0.25700
C2052       C  0.10441801  0.70521576  0.76770660     0.02900
C2053       C  0.09651926  0.73340664  0.76624397     0.27700
C2054       C  0.11257380  0.76329514  0.77440227    -0.24800
N2055       N  0.16770902  0.73685697  0.79516101    -0.82200
H2056       H  0.13368004  0.68504142  0.77836689     0.13500
C2057       C  0.08872839  0.67399127  0.75902170     0.02900
N2058       N  0.07192728  0.73129852  0.75656408    -0.80800
H2059       H  0.10639355  0.78500702  0.77334957     0.18300
C2060       C  0.05426090  0.64539524  0.76152798    -0.25600
C2061       C  0.03805539  0.61559613  0.75325998     0.36400
C2062       C  0.05679466  0.61483672  0.74224839    -0.19700
C2063       C  0.09117524  0.64381397  0.73970416    -0.24900
C2064       C  0.10752319  0.67332758  0.74809165     0.27800
H2065       H  0.04003432  0.64646086  0.76993738     0.13500
N2066       N  0.00259803  0.58632887  0.75592320    -0.82200
H2067       H  0.10560995  0.64296757  0.73132581     0.18400
N2068       N  0.14326489  0.70237171  0.74569325    -0.80800
H2069       H  0.49247803  0.59095872  0.76439100     0.34000
H2070       H  0.48555173  0.58587927  0.74860270     0.38500
H2071       H  0.15362487  0.69742676  0.73737390     0.34000
H2072       H  0.14178817  0.72589648  0.74404802     0.30700
H2073       H  0.06847120  0.75399176  0.75694154     0.34000
H2074       H  0.08347857  0.73204789  0.74769029     0.30700
H2075       H  0.17929044  0.76068543  0.80045858     0.38500
H2076       H  0.15277259  0.71559575  0.80151620     0.34000
C2077       C  0.13089789  0.87663732  0.80988669    -0.19700
C2078       C  0.14066148  0.91189557  0.80569103     0.36500
C2079       C  0.11978963  0.92764330  0.80905160    -0.25700
C2080       C  0.09079957  0.91072845  0.81759335     0.02900
C2081       C  0.08269627  0.87646678  0.82269624     0.27700
C2082       C  0.10255269  0.85966155  0.81866171    -0.24800
N2083       N  0.17202278  0.93206374  0.79798774    -0.82200
H2084       H  0.12644759  0.95345950  0.80480884     0.13500
C2085       C  0.07022862  0.92988017  0.82117367     0.02900
N2086       N  0.05430762  0.85870372  0.83187735    -0.80800
H2087       H  0.09509951  0.83272010  0.82202814     0.18300
C2088       C  0.03244610  0.91079222  0.82175291    -0.25600
C2089       C  0.01290221  0.92774134  0.82589569     0.36400
C2090       C  0.03113171  0.96514802  0.82863410    -0.19700
C2091       C  0.06825262  0.98487340  0.82678735    -0.24900
C2092       C  0.08814831  0.96759289  0.82381022     0.27800
H2093       H  0.01810295  0.88231581  0.81930609     0.13500
N2094       N  0.47470168  0.90708391  0.82753732    -0.82200
H2095       H  0.08210574  0.51360510  0.82871841     0.18400
N2096       N  0.12662692  0.98802598  0.82416322    -0.80800
H2097       H  0.46522471  0.87999746  0.82506906     0.34000
H2098       H  0.46897625  0.90727347  0.83722761     0.38500
H2099       H  0.13546566  0.51518085  0.82620607     0.34000
H2100       H  0.13502480  0.97786265  0.83167219     0.30700
H2101       H  0.05175135  0.83387008  0.83462421     0.34000
H2102       H  0.06148667  0.87491586  0.84004518     0.30700
H2103       H  0.18934280  0.95565483  0.80295151     0.38500
H2104       H  0.16446988  0.93997478  0.78964768     0.34000
C2105       C  0.23551694  0.87323439  0.81484166    -0.19700
C2106       C  0.25591805  0.91129381  0.81460442     0.36500
C2107       C  0.29171758  0.92886824  0.81870135    -0.25700
C2108       C  0.30763232  0.90914374  0.82336798     0.02900
C2109       C  0.28580427  0.87131820  0.82500827     0.27700
C2110       C  0.25016698  0.85361464  0.82055064    -0.24800
N2111       N  0.24052910  0.93216149  0.80988556    -0.82200
H2112       H  0.30750792  0.95805420  0.81780030     0.13500
C2113       C  0.34678740  0.92880068  0.82659102     0.02900
N2114       N  0.29968625  0.85085200  0.83121588    -0.80800
H2115       H  0.23453450  0.82434589  0.82100068     0.18300
C2116       C  0.36023169  0.95955688  0.83438777    -0.25600
C2117       C  0.39651009  0.97910864  0.83773166     0.36400
C2118       C  0.42055148  0.96720132  0.83353723    -0.19700
C2119       C  0.40763422  0.93771942  0.82509590    -0.24900
C2120       C  0.37114946  0.91869163  0.82144855     0.27800
H2121       H  0.34222182  0.96849430  0.83802825     0.13500
N2122       N  0.40791223  0.01124520  0.84524415    -0.82200
H2123       H  0.42578525  0.92877785  0.82166026     0.18400
N2124       N  0.35879668  0.88924097  0.81252537    -0.80800
H2125       H  0.39547242  0.50353600  0.85416899     0.34000
H2126       H  0.43545706  0.52463455  0.84668940     0.38500
H2127       H  0.37996153  0.88534189  0.80958777     0.34000
H2128       H  0.34983282  0.89659409  0.80440630     0.30700
H2129       H  0.28366496  0.83827383  0.83920739     0.34000
H2130       H  0.29725011  0.83056963  0.82495941     0.30700
H2131       H  0.25695030  0.94892738  0.80258039     0.38500
H2132       H  0.24093563  0.94891415  0.81727589     0.34000
C2133       C  0.11998619  0.76237144  0.81236789    -0.19700
C2134       C  0.13042478  0.75078606  0.82328239     0.36500
C2135       C  0.11044888  0.71425303  0.82722892    -0.25700
C2136       C  0.08170724  0.68807260  0.81986167     0.02900
C2137       C  0.07026990  0.70049737  0.80928933     0.27700
C2138       C  0.08771523  0.73769667  0.80641331    -0.24800
N2139       N  0.16215575  0.77541893  0.83002164    -0.82200
H2140       H  0.11859036  0.70614132  0.83580825     0.13500
C2141       C  0.06446600  0.64823604  0.82316225     0.02900
N2142       N  0.04269557  0.67532417  0.80092428    -0.80800
H2143       H  0.07817979  0.74687326  0.79848057     0.18300
C2144       C  0.02694714  0.62551812  0.82231302    -0.25600
C2145       C  0.01025473  0.58849279  0.82557323     0.36400
C2146       C  0.03066180  0.57407777  0.83074310    -0.19700
C2147       C  0.06804324  0.59594274  0.83115294    -0.24900
C2148       C  0.08509327  0.63230490  0.82711174     0.27800
H2149       H  0.01008170  0.63655611  0.81948143     0.13500
N2150       N  0.97234010  0.56598860  0.82413678    -0.82200
H2151       H  0.08409751  0.58490831  0.83495295     0.18400
N2152       N  0.12342789  0.65277865  0.82700197    -0.80800
H2153       H  0.96629717  0.56586772  0.81447858     0.34000
H2154       H  0.95959158  0.57770435  0.82916901     0.38500
H2155       H  0.13246644  0.65281983  0.83625177     0.34000
H2156       H  0.13289330  0.63950099  0.82106438     0.30700
H2157       H  0.03782551  0.68892450  0.79356328     0.34000
H2158       H  0.05230520  0.65961057  0.79657504     0.30700
H2159       H  0.15503542  0.77650653  0.83949285     0.38500
H2160       H  0.17958236  0.76484630  0.82996107     0.34000
C2161       C  0.36818093  0.73195225  0.19206164    -0.19700
C2162       C  0.40517307  0.74700450  0.19387429     0.36500
C2163       C  0.42276009  0.77508450  0.20273700    -0.25700
C2164       C  0.40374417  0.78843297  0.20969802     0.02900
C2165       C  0.36680183  0.77453839  0.20729784     0.27700
C2166       C  0.34961259  0.74633390  0.19855800    -0.24800
N2167       N  0.42478768  0.73374466  0.18672978    -0.82200
H2168       H  0.45128738  0.78647121  0.20421613     0.13500
C2169       C  0.42342669  0.81864399  0.21865713     0.02900
N2170       N  0.34608812  0.78881497  0.21321844    -0.80800
H2171       H  0.32148756  0.73573883  0.19676715     0.18300
C2172       C  0.44506117  0.85321025  0.21360735    -0.25600
C2173       C  0.46108338  0.88370035  0.22154627     0.36400
C2174       C  0.45442993  0.87949538  0.23488392    -0.19700
C2175       C  0.43471747  0.84430508  0.23997640    -0.24900
C2176       C  0.41915209  0.81375622  0.23197262     0.27800
H2177       H  0.44872759  0.85645278  0.20335718     0.13500
N2178       N  0.48370451  0.91883732  0.21603996    -0.82200
H2179       H  0.43029061  0.84062679  0.25017834     0.18400
N2180       N  0.39893376  0.77794061  0.23727435    -0.80800
H2181       H  0.98486240  0.91708410  0.20610454     0.34000
H2182       H  0.00960566  0.92801611  0.21938809     0.38500
H2183       H  0.39927345  0.77903679  0.24724377     0.34000
H2184       H  0.37222142  0.76735989  0.23457144     0.30700
H2185       H  0.32650310  0.76837058  0.21891379     0.34000
H2186       H  0.36150894  0.81069606  0.21919080     0.30700
H2187       H  0.44473288  0.75540831  0.18153634     0.38500
H2188       H  0.43726430  0.72480069  0.19316530     0.34000
C2189       C  0.43412710  0.54358017  0.23323643    -0.19700
C2190       C  0.42946412  0.53464607  0.22006181     0.36500
C2191       C  0.41736408  0.55247090  0.21185384    -0.25700
C2192       C  0.40925732  0.57850818  0.21648300     0.02900
C2193       C  0.41308051  0.58695799  0.22959219     0.27700
C2194       C  0.42550632  0.56947511  0.23782782    -0.24800
N2195       N  0.43639632  0.50714354  0.21505611    -0.82200
H2196       H  0.41334283  0.54539052  0.20182234     0.13500
C2197       C  0.39364542  0.59428669  0.20770826     0.02900
N2198       N  0.40416668  0.61318535  0.23447254    -0.80800
H2199       H  0.42902729  0.57660812  0.24785173     0.18300
C2200       C  0.35717352  0.58315526  0.20892927    -0.25600
C2201       C  0.34082386  0.59716798  0.20093909     0.36400
C2202       C  0.36164214  0.62367900  0.19179062    -0.19700
C2203       C  0.39813891  0.63461825  0.19044997    -0.24900
C2204       C  0.41429975  0.61970901  0.19820754     0.27800
H2205       H  0.34134761  0.56310829  0.21608465     0.13500
N2206       N  0.30305694  0.58429514  0.20198098    -0.82200
H2207       H  0.41405164  0.65503934  0.18342616     0.18400
N2208       N  0.45164677  0.63094797  0.19671243    -0.80800
H2209       H  0.29166283  0.56498729  0.20924238     0.34000
H2210       H  0.29120288  0.57098900  0.19346739     0.38500
H2211       H  0.46314393  0.65068305  0.18958904     0.34000
H2212       H  0.45342704  0.60861004  0.19345756     0.30700
H2213       H  0.40814421  0.61611397  0.24433589     0.34000
H2214       H  0.42198903  0.63822888  0.23039867     0.30700
H2215       H  0.41752745  0.98241204  0.21912097     0.38500
H2216       H  0.43208981  0.00433411  0.20519988     0.34000
C2217       C  0.10766917  0.55449409  0.23489381    -0.19700
C2218       C  0.10638902  0.56680878  0.22247240     0.36500
C2219       C  0.13592826  0.57784146  0.21429850    -0.25700
C2220       C  0.16657425  0.57715976  0.21838274     0.02900
C2221       C  0.16834283  0.56596904  0.23085526     0.27700
C2222       C  0.13884625  0.55481037  0.23902848    -0.24800
N2223       N  0.07546941  0.56868332  0.21830744    -0.82200
H2224       H  0.13546058  0.58778107  0.20481792     0.13500
C2225       C  0.19830873  0.59239950  0.21006110     0.02900
N2226       N  0.20020525  0.56616561  0.23513390    -0.80800
H2227       H  0.13984848  0.54540580  0.24854409     0.18300
C2228       C  0.22670247  0.62647015  0.21314585    -0.25600
C2229       C  0.25713411  0.64321367  0.20542977     0.36400
C2230       C  0.25942114  0.62567780  0.19432474    -0.19700
C2231       C  0.23159262  0.59039795  0.19165214    -0.24900
C2232       C  0.20066855  0.57376524  0.19931749     0.27800
H2233       H  0.22494169  0.64051151  0.22153029     0.13500
N2234       N  0.28510926  0.67842208  0.20886048    -0.82200
H2235       H  0.23384340  0.57598674  0.18348643     0.18400
N2236       N  0.17212305  0.53797800  0.19640475    -0.80800
H2237       H  0.29457754  0.67669641  0.21786198     0.34000
H2238       H  0.27399215  0.69539720  0.20965401     0.38500
H2239       H  0.17864347  0.52769885  0.18838622     0.34000
H2240       H  0.14968874  0.54011150  0.19391657     0.30700
H2241       H  0.19730941  0.55742887  0.24460686     0.34000
H2242       H  0.20326805  0.54729158  0.22964292     0.30700
H2243       H  0.07338801  0.58774922  0.22403718     0.38500
H2244       H  0.07894776  0.57833364  0.20894046     0.34000
C2245       C  0.11875883  0.90050969  0.35116505    -0.19700
C2246       C  0.08344033  0.89481554  0.35155470     0.36500
C2247       C  0.07086750  0.90659556  0.34122411    -0.25700
C2248       C  0.09276534  0.92327644  0.33056753     0.02900
C2249       C  0.12825364  0.93006181  0.33037951     0.27700
C2250       C  0.14103243  0.91912996  0.34075125    -0.24800
N2251       N  0.06004377  0.87575546  0.36205488    -0.82200
H2252       H  0.04359998  0.90171871  0.34125943     0.13500
C2253       C  0.07827140  0.93277951  0.31940473     0.02900
N2254       N  0.15076032  0.94695716  0.31944975    -0.80800
H2255       H  0.16817222  0.92365100  0.34042494     0.18300
C2256       C  0.08910468  0.96920016  0.31715951    -0.25600
C2257       C  0.07702639  0.97968164  0.30642951     0.36400
C2258       C  0.05426863  0.95302714  0.29757024    -0.19700
C2259       C  0.04353285  0.91644778  0.29987595    -0.24900
C2260       C  0.05555349  0.90609175  0.31068910     0.27800
H2261       H  0.10673913  0.98945379  0.32392428     0.13500
N2262       N  0.08717611  0.51723130  0.30471222    -0.82200
H2263       H  0.02586222  0.89592264  0.29319970     0.18400
N2264       N  0.04504612  0.86870457  0.31284049    -0.80800
H2265       H  0.10456459  0.53323512  0.31192741     0.34000
H2266       H  0.06393396  0.51916674  0.30571867     0.38500
H2267       H  0.02806314  0.85244302  0.30557629     0.34000
H2268       H  0.06812302  0.86634360  0.31230134     0.30700
H2269       H  0.17621676  0.95005079  0.32083577     0.34000
H2270       H  0.13957789  0.92936849  0.31170568     0.30700
H2271       H  0.05517738  0.84908387  0.36182380     0.38500
H2272       H  0.03520269  0.87433451  0.36089032     0.34000
C2273       C  0.03844350  0.60273025  0.29490429    -0.19700
C2274       C  0.01338927  0.60852399  0.30196179     0.36500
C2275       C  0.02547585  0.63413034  0.31193236    -0.25700
C2276       C  0.06166912  0.65307467  0.31537260     0.02900
C2277       C  0.08665868  0.64745311  0.30844203     0.27700
C2278       C  0.07489159  0.62258010  0.29827685    -0.24800
N2279       N  0.97566879  0.58764374  0.29935896    -0.82200
H2280       H  0.00640149  0.63846858  0.31736570     0.13500
C2281       C  0.07320738  0.67830079  0.32642287     0.02900
N2282       N  0.12391744  0.66689933  0.31184612    -0.80800
H2283       H  0.09437546  0.61835045  0.29308418     0.18300
C2284       C  0.08496799  0.66925909  0.33758641    -0.25600
C2285       C  0.09862001  0.69352039  0.34793729     0.36400
C2286       C  0.10144461  0.72806828  0.34694492    -0.19700
C2287       C  0.08797291  0.73622671  0.33593791    -0.24900
C2288       C  0.07385039  0.71171134  0.32570571     0.27800
H2289       H  0.08387381  0.64324743  0.33813726     0.13500
N2290       N  0.11087407  0.68362808  0.35917496    -0.82200
H2291       H  0.08926422  0.76229041  0.33516125     0.18400
N2292       N  0.06102256  0.72096461  0.31445712    -0.80800
H2293       H  0.10878974  0.65818773  0.35803174     0.34000
H2294       H  0.09341828  0.68084822  0.36661877     0.38500
H2295       H  0.06306736  0.74641933  0.31547208     0.34000
H2296       H  0.07786021  0.72308172  0.30687832     0.30700
H2297       H  0.13885214  0.65945786  0.30592477     0.34000
H2298       H  0.13323075  0.69441520  0.31019017     0.30700
H2299       H  0.46725632  0.56084003  0.30208006     0.38500
H2300       H  0.46128659  0.59614920  0.30513389     0.34000
C2301       C  0.39244562  0.93302431  0.29574288    -0.19700
C2302       C  0.39259620  0.90700125  0.30419455     0.36500
C2303       C  0.37039934  0.89634750  0.31502644    -0.25700
C2304       C  0.34874094  0.91155446  0.31777411     0.02900
C2305       C  0.34841811  0.93736316  0.30942552     0.27700
C2306       C  0.37029879  0.94786833  0.29850486    -0.24800
N2307       N  0.41611479  0.89240087  0.30207601    -0.82200
H2308       H  0.37047491  0.87657830  0.32154068     0.13500
C2309       C  0.32540499  0.89912624  0.32919282     0.02900
N2310       N  0.32581395  0.95271466  0.31207738    -0.80800
H2311       H  0.37027298  0.96801236  0.29217564     0.18300
C2312       C  0.33078184  0.92361783  0.33908527    -0.25600
C2313       C  0.30707413  0.91324293  0.34953994     0.36400
C2314       C  0.27711445  0.87806201  0.34981503    -0.19700
C2315       C  0.27294352  0.85314741  0.34024599    -0.24900
C2316       C  0.29699713  0.86321581  0.32998842     0.27800
H2317       H  0.35310776  0.95102349  0.33849382     0.13500
N2318       N  0.31215044  0.93878240  0.35943989    -0.82200
H2319       H  0.25006236  0.82601288  0.34057264     0.18400
N2320       N  0.29208460  0.83748792  0.32016840    -0.80800
H2321       H  0.33473790  0.96386098  0.35751432     0.34000
H2322       H  0.31765980  0.92934270  0.36786471     0.38500
H2323       H  0.27014132  0.81212131  0.32227064     0.34000
H2324       H  0.28597733  0.84628169  0.31170949     0.30700
H2325       H  0.32899382  0.97158923  0.30506516     0.34000
H2326       H  0.29923656  0.93180426  0.31155024     0.30700
H2327       H  0.44237137  0.91347862  0.30333936     0.38500
H2328       H  0.41193712  0.87287124  0.30896037     0.34000
C2329       C  0.22418054  0.95055297  0.40818996    -0.19700
C2330       C  0.26069700  0.97786190  0.40739143     0.36500
C2331       C  0.27402234  0.00769802  0.41576160    -0.25700
C2332       C  0.25215078  0.51076240  0.42509767     0.02900
C2333       C  0.21560792  0.98402011  0.42573197     0.27700
C2334       C  0.20203624  0.95444739  0.41725803    -0.24800
N2335       N  0.28400337  0.97588268  0.39792971    -0.82200
H2336       H  0.30190772  0.02859471  0.41516894     0.13500
C2337       C  0.26781909  0.54188865  0.43413840     0.02900
N2338       N  0.19259501  0.48712668  0.43504273    -0.80800
H2339       H  0.17407348  0.93384719  0.41794568     0.18300
C2340       C  0.25615225  0.56746728  0.43360111    -0.25600
C2341       C  0.27102693  0.59805307  0.44156370     0.36400
C2342       C  0.29789212  0.60325593  0.45036784    -0.19700
C2343       C  0.30954316  0.57772325  0.45093784    -0.24900
C2344       C  0.29481178  0.54707744  0.44302905     0.27800
H2345       H  0.23558701  0.56385401  0.42685041     0.13500
N2346       N  0.25832603  0.62346343  0.44082334    -0.82200
H2347       H  0.33051299  0.58174000  0.45755931     0.18400
N2348       N  0.30741154  0.52161432  0.44456104    -0.80800
H2349       H  0.26244445  0.63358880  0.43152005     0.34000
H2350       H  0.23073549  0.60962371  0.44260250     0.38500
H2351       H  0.33394353  0.53410957  0.44136174     0.34000
H2352       H  0.29281824  0.99820950  0.43907962     0.30700
H2353       H  0.16643391  0.96532192  0.43425645     0.34000
H2354       H  0.20165431  0.48497098  0.44407158     0.30700
H2355       H  0.28934178  0.95541467  0.40072007     0.38500
H2356       H  0.30877189  0.99977768  0.39784280     0.34000
C2357       C  0.05631155  0.77027826  0.40816384    -0.19700
C2358       C  0.05091127  0.78856840  0.41845748     0.36500
C2359       C  0.01983071  0.77033051  0.42594002    -0.25700
C2360       C  0.49448953  0.73428740  0.42349733     0.02900
C2361       C  0.50029389  0.71544313  0.41357123     0.27700
C2362       C  0.03126657  0.73360811  0.40596207    -0.24800
N2363       N  0.07713554  0.82539757  0.42135961    -0.82200
H2364       H  0.01512387  0.78440470  0.43369391     0.13500
C2365       C  0.46110928  0.71757593  0.43103714     0.02900
N2366       N  0.47416678  0.67836461  0.41097961    -0.80800
H2367       H  0.03548944  0.71942820  0.39813339     0.18300
C2368       C  0.43288585  0.72261776  0.42705159    -0.25600
C2369       C  0.40317122  0.71311085  0.43495846     0.36400
C2370       C  0.40121325  0.69744593  0.44708974    -0.19700
C2371       C  0.42803731  0.68898062  0.45034963    -0.24900
C2372       C  0.45863634  0.70020325  0.44269962     0.27800
H2373       H  0.43485298  0.73589682  0.41801489     0.13500
N2374       N  0.37633356  0.72134004  0.43077509    -0.82200
H2375       H  0.42586742  0.67472956  0.45914694     0.18400
N2376       N  0.48791992  0.69567157  0.44700565    -0.80800
H2377       H  0.36533210  0.70705533  0.42232473     0.34000
H2378       H  0.38884564  0.74895854  0.42861424     0.38500
H2379       H  0.48238841  0.68360013  0.45603157     0.34000
H2380       H  0.99019915  0.67754562  0.44073008     0.30700
H2381       H  0.48223372  0.66861955  0.40321179     0.34000
H2382       H  0.47319366  0.66284640  0.41886094     0.30700
H2383       H  0.10056530  0.82554971  0.42413183     0.38500
H2384       H  0.06891602  0.83486426  0.42917532     0.34000
C2385       C  0.22036604  0.77825111  0.40968022    -0.19700
C2386       C  0.21365332  0.74214865  0.40920724     0.36500
C2387       C  0.22635432  0.72908837  0.41906643    -0.25700
C2388       C  0.24537770  0.75123823  0.42938585     0.02900
C2389       C  0.25151511  0.78700404  0.43000251     0.27700
C2390       C  0.23927070  0.80024932  0.42009055    -0.24800
N2391       N  0.19480429  0.71918416  0.39860155    -0.82200
H2392       H  0.22231895  0.70182643  0.41854317     0.13500
C2393       C  0.26250776  0.73813577  0.43859511     0.02900
N2394       N  0.27035699  0.80970896  0.44067403    -0.80800
H2395       H  0.24397631  0.82775053  0.42061565     0.18300
C2396       C  0.29998796  0.75674551  0.43907478    -0.25600
C2397       C  0.31855776  0.74431171  0.44651636     0.36400
C2398       C  0.29923147  0.71139911  0.45328543    -0.19700
C2399       C  0.26167721  0.69346122  0.45327818    -0.24900
C2400       C  0.24298339  0.70654826  0.44610524     0.27800
H2401       H  0.31513697  0.78105808  0.43341109     0.13500
N2402       N  0.35689900  0.76567411  0.44683551    -0.82200
H2403       H  0.24673385  0.66876564  0.45874988     0.18400
N2404       N  0.20453019  0.68744856  0.44684241    -0.80800
H2405       H  0.36358516  0.79140515  0.45039206     0.34000
H2406       H  0.36761202  0.75484731  0.45308297     0.38500
H2407       H  0.19532437  0.66214131  0.44255746     0.34000
H2408       H  0.19347526  0.70081405  0.44186618     0.30700
H2409       H  0.27280811  0.83534902  0.43966822     0.34000
H2410       H  0.25479667  0.79806784  0.44883352     0.30700
H2411       H  0.21069581  0.73028606  0.39046315     0.38500
H2412       H  0.19184296  0.69340752  0.39980512     0.34000
Zn2413     Zn  0.66752988  0.33743230  0.36113226     1.49700
Zn2414     Zn  0.71718148  0.36036680  0.38545714     1.49400
Zn2415     Zn  0.64174080  0.35886675  0.38623395     1.49100
Zn2416     Zn  0.64401528  0.28334508  0.38368234     1.49500
O2417       O  0.66754982  0.33510657  0.37940917    -1.84000
O2418       O  0.71601285  0.35374462  0.35408386    -0.74600
O2419       O  0.72811491  0.40578898  0.39538954    -0.74400
O2420       O  0.62305032  0.37810416  0.37184405    -0.74000
O2421       O  0.75268415  0.37366870  0.37073000    -0.74600
O2422       O  0.65135418  0.37088805  0.35529955    -0.74200
O2423       O  0.67487378  0.40196044  0.39738111    -0.74800
O2424       O  0.60151741  0.27104630  0.39489950    -0.74200
O2425       O  0.72407893  0.32731655  0.39753867    -0.75000
O2426       O  0.60042282  0.32267165  0.39711078    -0.74400
O2427       O  0.67685889  0.27264951  0.39440331    -0.74800
O2428       O  0.62464929  0.25006804  0.36805611    -0.74700
O2429       O  0.63449070  0.29009294  0.35289848    -0.74500
C2430       C  0.74728618  0.36808919  0.35878069     0.77300
C2431       C  0.70837821  0.41793651  0.39979107     0.77800
C2432       C  0.63183453  0.38264522  0.36005265     0.76700
C2433       C  0.58779976  0.28910111  0.39960701     0.77100
C2434       C  0.70659743  0.29340313  0.39986706     0.78200
C2435       C  0.62099007  0.25741627  0.35654435     0.77300
Zn2436     Zn  0.96650972  0.01500532  0.26930238     1.49700
Zn2437     Zn  0.99574523  0.49265816  0.24511930     1.49400
Zn2438     Zn  0.54424867  0.02330534  0.26990038     1.49100
Zn2439     Zn  0.97560840  0.44372336  0.26975970     1.49500
O2440       O  0.99547154  0.49371086  0.26358435    -1.84000
O2441       O  0.94646044  0.02985290  0.25423246    -0.74600
O2442       O  0.54520599  0.02126158  0.23832717    -0.74400
O2443       O  0.54929209  0.06459953  0.28094890    -0.74000
O2444       O  0.96762967  0.01391371  0.23759662    -0.74600
O2445       O  0.49516256  0.05868574  0.28061097    -0.74200
O2446       O  0.58005773  0.04179828  0.25542131    -0.74800
O2447       O  0.50866034  0.43974459  0.28229054    -0.74200
O2448       O  0.97661475  0.44234921  0.23849538    -0.75000
O2449       O  0.55634318  0.49467213  0.28197009    -0.74400
O2450       O  0.96426420  0.40725044  0.25550702    -0.74800
O2451       O  0.93221155  0.43013985  0.28047196    -0.74700
O2452       O  0.92776138  0.48008146  0.28105702    -0.74500
C2453       C  0.94981019  0.02790500  0.24217816     0.77300
C2454       C  0.57599616  0.03880193  0.24335486     0.77800
C2455       C  0.52712402  0.07429476  0.28480325     0.76700
C2456       C  0.53931347  0.46279161  0.28651693     0.77100
C2457       C  0.96598031  0.41133866  0.24342823     0.78200
C2458       C  0.91820061  0.44813650  0.28495303     0.77300
C2459       C  0.66335306  0.33585436  0.81131570     0.45600
H2460       H  0.66036605  0.33658981  0.82181862    -0.03400
C2461       C  0.67070168  0.33493630  0.78660065     0.45600
H2462       H  0.67390419  0.33448437  0.77607852    -0.03400
C2463       C  0.64719898  0.35601234  0.80384492    -0.17100
C2464       C  0.70299911  0.35416001  0.80664029    -0.16900
C2465       C  0.64472267  0.29699596  0.80545355    -0.17300
C2466       C  0.65008764  0.35394935  0.79079539    -0.17200
C2467       C  0.70613903  0.35354809  0.79362590    -0.16800
C2468       C  0.65035817  0.29739327  0.79247609    -0.17100
C2469       C  0.99330288  0.00069166  0.83203189     0.45600
H2470       H  0.99057626  0.00072650  0.82150234    -0.03400
C2471       C  0.00017427  0.00095538  0.85679676     0.45600
H2472       H  0.00330433  0.00090429  0.86731773    -0.03400
C2473       C  0.51360369  0.03928749  0.83801095    -0.17100
C2474       C  0.95686923  0.48153125  0.83937985    -0.16900
C2475       C  0.51452581  0.48184838  0.83675488    -0.17300
C2476       C  0.51626782  0.03885818  0.85105717    -0.17200
C2477       C  0.96115526  0.48102203  0.85238393    -0.16800
C2478       C  0.51804402  0.48271572  0.84976382    -0.17100
C2479       C  0.66976409  0.33904283  0.49950450     0.45600
H2480       H  0.67019955  0.33875972  0.48892605    -0.03400
C2481       C  0.66890986  0.34082210  0.52441764     0.45600
H2482       H  0.66908561  0.34168971  0.53500890    -0.03400
C2483       C  0.68923501  0.32041091  0.50605976    -0.17100
C2484       C  0.68850458  0.37797800  0.50515100    -0.16900
C2485       C  0.63122893  0.32053798  0.50549449    -0.17300
C2486       C  0.68736614  0.32096962  0.51918581    -0.17200
C2487       C  0.68799976  0.37815650  0.51819582    -0.16800
C2488       C  0.63157738  0.32123671  0.51865331    -0.17100
C2489       C  0.84127415  0.17501894  0.47738745     0.45600
H2490       H  0.84446974  0.17537478  0.48790178    -0.03400
C2491       C  0.83312200  0.17390949  0.45271174     0.45600
H2492       H  0.82856251  0.17259906  0.44230648    -0.03400
C2493       C  0.82131098  0.19506310  0.47294140    -0.17100
C2494       C  0.87754689  0.19380276  0.46974538    -0.16900
C2495       C  0.81889539  0.13604790  0.47159474    -0.17300
C2496       C  0.81759843  0.19456671  0.45996586    -0.17200
C2497       C  0.87250596  0.19085636  0.45664373    -0.16800
C2498       C  0.81542552  0.13627654  0.45855690    -0.17100
Zn2499     Zn  0.83894123  0.17390395  0.61531678     1.49700
Zn2500     Zn  0.78824788  0.14803845  0.59168312     1.49400
Zn2501     Zn  0.86397129  0.22282458  0.59086873     1.49100
Zn2502     Zn  0.86270522  0.14597352  0.59181740     1.49500
O2503       O  0.83842113  0.17269107  0.59713078    -1.84000
O2504       O  0.79098293  0.14428759  0.62274259    -0.74600
O2505       O  0.77823768  0.18187495  0.58113689    -0.74400
O2506       O  0.88156600  0.26031246  0.60531697    -0.74000
O2507       O  0.75285413  0.12797885  0.60672577    -0.74600
O2508       O  0.85675022  0.22319625  0.62175174    -0.74200
O2509       O  0.83106024  0.23218455  0.58001815    -0.74800
O2510       O  0.90413276  0.17735381  0.58044229    -0.74200
O2511       O  0.78002981  0.10683573  0.58018006    -0.75000
O2512       O  0.90474936  0.23006304  0.57944817    -0.74400
O2513       O  0.82980011  0.10291074  0.58124942    -0.74800
O2514       O  0.88206365  0.13004738  0.60665145    -0.74700
O2515       O  0.86937951  0.15597122  0.62265253    -0.74500
C2516       C  0.75908505  0.12843253  0.61863795     0.77300
C2517       C  0.79811601  0.21405906  0.57702860     0.77800
C2518       C  0.87393161  0.25491620  0.61717102     0.76700
C2519       C  0.91710493  0.20945652  0.57617034     0.77100
C2520       C  0.79839028  0.09197461  0.57698296     0.78200
C2521       C  0.88377616  0.13820687  0.61842162     0.77300
Zn2522     Zn  0.95054533  0.48056773  0.70785264     1.49700
Zn2523     Zn  0.52778402  0.05229623  0.70696184     1.49400
Zn2524     Zn  0.50137673  0.00135669  0.73162906     1.49100
Zn2525     Zn  0.52217104  0.47518361  0.70608563     1.49500
O2526       O  0.50059449  0.00235563  0.71311862    -1.84000
O2527       O  0.94345335  0.01345641  0.69601864    -0.74600
O2528       O  0.54537209  0.08790598  0.72163538    -0.74400
O2529       O  0.95169733  0.47545188  0.73925339    -0.74000
O2530       O  0.99717554  0.06233585  0.69517944    -0.74600
O2531       O  0.91583986  0.46483186  0.72276414    -0.74200
O2532       O  0.52532831  0.05164830  0.73859556    -0.74800
O2533       O  0.53896080  0.45450353  0.72005572    -0.74200
O2534       O  0.56886401  0.06047422  0.69539613    -0.75000
O2535       O  0.52812373  0.47682128  0.73772070    -0.74400
O2536       O  0.56335970  0.00593180  0.69427573    -0.74800
O2537       O  0.98801445  0.43589373  0.69461592    -0.74700
O2538       O  0.93762779  0.43796517  0.69659713    -0.74500
C2539       C  0.96502308  0.04426579  0.69128284     0.77300
C2540       C  0.54161981  0.08313344  0.73367885     0.77800
C2541       C  0.92035605  0.46326373  0.73470859     0.76700
C2542       C  0.54051961  0.45871045  0.73211956     0.77100
C2543       C  0.57836988  0.03884123  0.69069756     0.78200
C2544       C  0.95571933  0.42501879  0.69145400     0.77300
C2545       C  0.82913514  0.16171624  0.19027609     0.45600
H2546       H  0.83162484  0.16225726  0.20082585    -0.03400
C2547       C  0.82471984  0.16068591  0.16541980     0.45600
H2548       H  0.82315509  0.16065261  0.15486454    -0.03400
C2549       C  0.84551260  0.14109506  0.18396471    -0.17100
C2550       C  0.79052132  0.14358135  0.18543226    -0.16900
C2551       C  0.84805164  0.19925236  0.18417216    -0.17300
C2552       C  0.84325600  0.13985251  0.17089742    -0.17200
C2553       C  0.78767983  0.14347984  0.17230315    -0.16800
C2554       C  0.84565384  0.19940972  0.17114551    -0.17100
C2555       C  0.99723463  0.99700466  0.12020150     0.45600
H2556       H  0.99820609  0.99616373  0.10963001    -0.03400
C2557       C  0.99455161  0.99693103  0.14504817     0.45600
H2558       H  0.99296077  0.99650667  0.15561816    -0.03400
C2559       C  0.97966213  0.01810377  0.12545554    -0.17100
C2560       C  0.97600926  0.45918028  0.12597739    -0.16900
C2561       C  0.53425133  0.01446515  0.12630048    -0.17300
C2562       C  0.97657790  0.01700657  0.13859938    -0.17200
C2563       C  0.97488024  0.45838422  0.13901854    -0.16800
C2564       C  0.53359101  0.01552540  0.13946211    -0.17100
Zn2565     Zn  0.64435454  0.36503893  0.93612647     1.49700
Zn2566     Zn  0.66529099  0.33430466  0.91201483     1.49400
Zn2567     Zn  0.71340600  0.35294098  0.93653805     1.49100
Zn2568     Zn  0.63512334  0.28542858  0.93689762     1.49500
O2569       O  0.66451647  0.33458111  0.93047110    -1.84000
O2570       O  0.62627873  0.38219674  0.92133576    -0.74600
O2571       O  0.71524245  0.35640781  0.90503639    -0.74400
O2572       O  0.72602594  0.39538137  0.94776277    -0.74000
O2573       O  0.64153636  0.36063850  0.90463300    -0.74600
O2574       O  0.68131090  0.40757918  0.94615131    -0.74200
O2575       O  0.74937781  0.36821721  0.92210719    -0.74800
O2576       O  0.66274136  0.27122253  0.94874030    -0.74200
O2577       O  0.63915116  0.28368039  0.90561345    -0.75000
O2578       O  0.71828381  0.31730841  0.94788334    -0.74400
O2579       O  0.61536756  0.24904793  0.92266160    -0.74800
O2580       O  0.59576754  0.28221848  0.94793895    -0.74700
O2581       O  0.60307716  0.33778513  0.94839646    -0.74500
C2582       C  0.62709232  0.37802359  0.90932398     0.77300
C2583       C  0.74595229  0.36820392  0.91003252     0.77800
C2584       C  0.71145280  0.41422112  0.95067522     0.76700
C2585       C  0.69516921  0.28671733  0.95238021     0.77100
C2586       C  0.62039387  0.25260164  0.91065106     0.78200
C2587       C  0.58719957  0.30500616  0.95216413     0.77300
Zn2588     Zn  0.82951012  0.16373740  0.06438880     1.49700
Zn2589     Zn  0.77954030  0.13519437  0.04021231     1.49400
Zn2590     Zn  0.85055000  0.21435801  0.03973541     1.49100
Zn2591     Zn  0.85797824  0.14329436  0.03960346     1.49500
O2592       O  0.82931661  0.16423390  0.04590681    -1.84000
O2593       O  0.77989416  0.13657110  0.07160593    -0.74600
O2594       O  0.76724533  0.16552977  0.02892875    -0.74400
O2595       O  0.86664487  0.24965273  0.05447506    -0.74000
O2596       O  0.74364269  0.11502713  0.05497811    -0.74600
O2597       O  0.85241749  0.21396985  0.07145190    -0.74200
O2598       O  0.81527860  0.22047532  0.02885919    -0.74800
O2599       O  0.89810449  0.17804027  0.02844117    -0.74200
O2600       O  0.77417179  0.09498272  0.02861679    -0.75000
O2601       O  0.89261999  0.22724149  0.02790064    -0.74400
O2602       O  0.82910447  0.10239717  0.02776427    -0.74800
O2603       O  0.87764602  0.12623663  0.05384870    -0.74700
O2604       O  0.85679963  0.14044704  0.07101082    -0.74500
C2605       C  0.74851247  0.11877185  0.06701707     0.77300
C2606       C  0.78387011  0.19813738  0.02498817     0.77800
C2607       C  0.86587180  0.24540825  0.06653367     0.76700
C2608       C  0.90762298  0.20945522  0.02409918     0.77100
C2609       C  0.79669533  0.08661463  0.02410402     0.78200
C2610       C  0.87467336  0.12713858  0.06592433     0.77300
C2611       C  0.70575489  0.27025091  0.96272760    -0.19700
C2612       C  0.68243975  0.25254920  0.97313061     0.36500
C2613       C  0.69476801  0.24089753  0.98350386    -0.25700
C2614       C  0.72983311  0.24688339  0.98374634     0.02900
C2615       C  0.75281174  0.26342301  0.97325178     0.27700
C2616       C  0.74060718  0.27521258  0.96286012    -0.24800
N2617       N  0.64682834  0.24767740  0.97336967    -0.82200
H2618       H  0.67721672  0.22768121  0.99156359     0.13500
C2619       C  0.74174422  0.23443068  0.99487998     0.02900
N2620       N  0.78814167  0.26757132  0.97311084    -0.80800
H2621       H  0.75841125  0.28855863  0.95487446     0.18300
C2622       C  0.73379147  0.19831379  0.99528234    -0.25600
C2623       C  0.74634576  0.18558648  0.00524638     0.36400
C2624       C  0.76725193  0.20968035  0.01504889    -0.19700
C2625       C  0.77427911  0.24568964  0.01480215    -0.24900
C2626       C  0.76120535  0.25819017  0.00488313     0.27800
H2627       H  0.71843480  0.18023349  0.98759978     0.13500
N2628       N  0.73900516  0.14865884  0.00516560    -0.82200
H2629       H  0.78998444  0.26406090  0.02236422     0.18400
N2630       N  0.76691189  0.29453650  0.00505574    -0.80800
H2631       H  0.72267272  0.13449241  0.99745383     0.34000
H2632       H  0.76333031  0.14908363  0.00375423     0.38500
H2633       H  0.78098182  0.30818612  0.01323956     0.34000
H2634       H  0.78313914  0.30850787  0.99727655     0.30700
H2635       H  0.80129175  0.27943498  0.96455938     0.34000
H2636       H  0.80298738  0.28559810  0.98037470     0.30700
H2637       H  0.64920825  0.27336461  0.97391603     0.38500
H2638       H  0.63311128  0.23376895  0.98160185     0.34000
C2639       C  0.78594880  0.06003232  0.01364491    -0.19700
C2640       C  0.75061742  0.03093171  0.01254801     0.36500
C2641       C  0.74106039  0.00873011  0.00170419    -0.25700
C2642       C  0.76613224  0.01509171  0.99205548     0.02900
C2643       C  0.80156297  0.04352336  0.99321032     0.27700
C2644       C  0.81118089  0.06578589  0.00402756    -0.24800
N2645       N  0.72475709  0.02388911  0.02246023    -0.82200
H2646       H  0.71428630  0.48641167  0.00068644     0.13500
C2647       C  0.75541126  0.49074862  0.98100880     0.02900
N2648       N  0.82735303  0.04985979  0.98333156    -0.80800
H2649       H  0.83825062  0.08830588  0.00478839     0.18300
C2650       C  0.74406852  0.50039904  0.96989208    -0.25600
C2651       C  0.73030618  0.47619636  0.95958295     0.36400
C2652       C  0.72863940  0.44228590  0.96047821    -0.19700
C2653       C  0.74113495  0.43332437  0.97147895    -0.24900
C2654       C  0.75413052  0.45711222  0.98184032     0.27800
H2655       H  0.74491822  0.02636722  0.96933468     0.13500
N2656       N  0.71783269  0.48569024  0.94830682    -0.82200
H2657       H  0.73931334  0.40699667  0.97219936     0.18400
N2658       N  0.76486875  0.44686021  0.99337766    -0.80800
H2659       H  0.72087780  0.51159097  0.94922154     0.34000
H2660       H  0.73428165  0.48691173  0.94072241     0.38500
H2661       H  0.76148266  0.42081586  0.99253622     0.34000
H2662       H  0.79229484  0.46448512  0.99458087     0.30700
H2663       H  0.85215807  0.07221969  0.98558566     0.34000
H2664       H  0.83122072  0.02742066  0.98303592     0.30700
H2665       H  0.73361381  0.01679445  0.03067408     0.38500
H2666       H  0.70002738  0.00154291  0.02012197     0.34000
C2667       C  0.56054982  0.29329229  0.96256878    -0.19700
C2668       C  0.53358799  0.30307810  0.96328292     0.36500
C2669       C  0.50910421  0.29017930  0.97355074    -0.25700
C2670       C  0.51195530  0.26881076  0.98320878     0.02900
C2671       C  0.53967910  0.26022582  0.98266686     0.27700
C2672       C  0.56321333  0.27199090  0.97225831    -0.24800
N2673       N  0.53031643  0.32477091  0.95342803    -0.82200
H2674       H  0.48760774  0.29655208  0.97400402     0.13500
C2675       C  0.98553447  0.25459555  0.99377307     0.02900
N2676       N  0.54396936  0.23983000  0.99277837    -0.80800
H2677       H  0.58439054  0.26513856  0.97184625     0.18300
C2678       C  0.96528451  0.21699775  0.99536664    -0.25600
C2679       C  0.94019087  0.20168569  0.00528393     0.36400
C2680       C  0.93526146  0.22464442  0.01389339    -0.19700
C2681       C  0.95550093  0.26239312  0.01221738    -0.24900
C2682       C  0.98087503  0.27760683  0.00230501     0.27800
H2683       H  0.96887663  0.19947859  0.98871045     0.13500
N2684       N  0.91911864  0.16290936  0.00638721    -0.82200
H2685       H  0.95177316  0.28008395  0.01873879     0.18400
N2686       N  0.50229918  0.31604425  0.00092111    -0.80800
H2687       H  0.92683757  0.15016733  0.99952457     0.34000
H2688       H  0.89256761  0.15557722  0.00436973     0.38500
H2689       H  0.49578263  0.32919534  0.00800230     0.34000
H2690       H  0.52898182  0.32293508  0.00243721     0.30700
H2691       H  0.56564917  0.23573818  0.99090557     0.34000
H2692       H  0.05086682  0.25609414  0.00113638     0.30700
H2693       H  0.55247101  0.35079642  0.95408628     0.38500
H2694       H  0.50780114  0.32762812  0.95505138     0.34000
C2695       C  0.95796751  0.42686674  0.11772779    -0.19700
C2696       C  0.92112304  0.41078521  0.11485120     0.36500
C2697       C  0.90563624  0.38085985  0.10662537    -0.25700
C2698       C  0.92626369  0.36699563  0.10125032     0.02900
C2699       C  0.96309908  0.38331639  0.10400980     0.27700
C2700       C  0.97868274  0.41336485  0.11218595    -0.24800
N2701       N  0.89944297  0.42441454  0.12038766    -0.82200
H2702       H  0.87745285  0.36845031  0.10428495     0.13500
C2703       C  0.90926403  0.33600081  0.09240702     0.02900
N2704       N  0.98443384  0.36932482  0.09844197    -0.80800
H2705       H  0.50730352  0.42643519  0.11428224     0.18300
C2706       C  0.91840517  0.34173970  0.07945330    -0.25600
C2707       C  0.90465255  0.31282393  0.07076195     0.36400
C2708       C  0.88081079  0.27732902  0.07516238    -0.19700
C2709       C  0.87141601  0.27191314  0.08819579    -0.24900
C2710       C  0.88532595  0.30090063  0.09685501     0.27800
H2711       H  0.93693642  0.36892469  0.07617372     0.13500
N2712       N  0.91551384  0.31944332  0.05759548    -0.82200
H2713       H  0.85312898  0.24491479  0.09168423     0.18400
N2714       N  0.87626326  0.29467160  0.11019205    -0.80800
H2715       H  0.93221519  0.34713670  0.05593060     0.34000
H2716       H  0.93093519  0.30708605  0.05575834     0.38500
H2717       H  0.85963296  0.26703117  0.11197902     0.34000
H2718       H  0.86126904  0.30718155  0.11249064     0.30700
H2719       H  0.51137311  0.38474751  0.10135219     0.34000
H2720       H  0.97495298  0.34315650  0.10201943     0.30700
H2721       H  0.90880635  0.45075354  0.11715050     0.38500
H2722       H  0.87290165  0.40927293  0.11734484     0.34000
C2723       C  0.96650391  0.03655938  0.11662145    -0.19700
C2724       C  0.97264315  0.07207532  0.11886928     0.36500
C2725       C  0.95785243  0.08704937  0.11053108    -0.25700
C2726       C  0.93831178  0.06781078  0.09980999     0.02900
C2727       C  0.93361535  0.03327371  0.09721329     0.27700
C2728       C  0.94829121  0.01830066  0.10551156    -0.24800
N2729       N  0.99424676  0.09300656  0.12942864    -0.82200
H2730       H  0.96182152  0.11393876  0.11229804     0.13500
C2731       C  0.92265803  0.08393431  0.09131524     0.02900
N2732       N  0.91356509  0.01341362  0.08621942    -0.80800
H2733       H  0.94505903  0.49201375  0.10328807     0.18300
C2734       C  0.93730843  0.09567568  0.07912288    -0.25600
C2735       C  0.92242257  0.11015950  0.07062029     0.36400
C2736       C  0.89187609  0.11233143  0.07440324    -0.19700
C2737       C  0.87748122  0.10060488  0.08669431    -0.24900
C2738       C  0.89248720  0.08628794  0.09516335     0.27800
H2739       H  0.96058551  0.09369851  0.07629362     0.13500
N2740       N  0.93858061  0.12314593  0.05830844    -0.82200
H2741       H  0.85402943  0.10206988  0.08965758     0.18400
N2742       N  0.87703799  0.07372992  0.10759892    -0.80800
H2743       H  0.96052998  0.11913456  0.05702189     0.34000
H2744       H  0.94867254  0.15116090  0.05814508     0.38500
H2745       H  0.85500062  0.07755153  0.10898636     0.34000
H2746       H  0.86726442  0.04578665  0.10792644     0.30700
H2747       H  0.91295807  0.48861838  0.08558726     0.34000
H2748       H  0.88712710  0.00773751  0.08750863     0.30700
H2749       H  0.02019067  0.09739974  0.12803929     0.38500
H2750       H  0.99610437  0.11849452  0.12968774     0.34000
C2751       C  0.56721612  0.02966351  0.11811547    -0.19700
C2752       C  0.57059568  0.05080099  0.10722000     0.36500
C2753       C  0.60000334  0.06173512  0.09900397    -0.25700
C2754       C  0.62717857  0.05373058  0.10170477     0.02900
C2755       C  0.62499765  0.03419103  0.11286551     0.27700
C2756       C  0.59459659  0.02161025  0.12082310    -0.24800
N2757       N  0.54473769  0.06210627  0.10470687    -0.82200
H2758       H  0.60240211  0.07767800  0.09060836     0.13500
C2759       C  0.65858433  0.06823315  0.09301321     0.02900
N2760       N  0.65360409  0.02730142  0.11605351    -0.80800
H2761       H  0.59213456  0.00526884  0.12909723     0.18300
C2762       C  0.69078009  0.09791309  0.09698891    -0.25600
C2763       C  0.72000284  0.11546721  0.08858130     0.36400
C2764       C  0.71741415  0.10217096  0.07597436    -0.19700
C2765       C  0.68491188  0.07237456  0.07201766    -0.24900
C2766       C  0.65543845  0.05538904  0.08040470     0.27800
H2767       H  0.69259070  0.10828110  0.10657515     0.13500
N2768       N  0.75183723  0.14743216  0.09271970    -0.82200
H2769       H  0.68254275  0.06213030  0.06239062     0.18400
N2770       N  0.62219206  0.02533918  0.07617330    -0.80800
H2771       H  0.74944144  0.15332334  0.10224025     0.34000
H2772       H  0.75414941  0.16919832  0.08732111     0.38500
H2773       H  0.62409571  0.01934204  0.06662417     0.34000
H2774       H  0.61768636  0.00264017  0.08149734     0.30700
H2775       H  0.64814174  0.01311536  0.12466919     0.34000
H2776       H  0.65468312  0.01045964  0.10898812     0.30700
H2777       H  0.54704696  0.07991618  0.11199471     0.38500
H2778       H  0.55067531  0.07680215  0.09619471     0.34000
C2779       C  0.85512039  0.11752244  0.16350092    -0.19700
C2780       C  0.88722104  0.13374864  0.15640064     0.36500
C2781       C  0.90314853  0.11292853  0.15277128    -0.25700
C2782       C  0.88839085  0.07651430  0.15649711     0.02900
C2783       C  0.85560279  0.05998402  0.16336369     0.27700
C2784       C  0.83898132  0.08039318  0.16638833    -0.24800
N2785       N  0.90469547  0.17174388  0.15357545    -0.82200
H2786       H  0.92815592  0.12559798  0.14748532     0.13500
C2787       C  0.90851651  0.05721393  0.15331497     0.02900
N2788       N  0.83968117  0.02363790  0.16825133    -0.80800
H2789       H  0.81467692  0.06789231  0.17206937     0.18300
C2790       C  0.94165017  0.06796246  0.15919240    -0.25600
C2791       C  0.96410803  0.05435609  0.15518192     0.36400
C2792       C  0.95239374  0.02798134  0.14532896    -0.19700
C2793       C  0.91783523  0.01524940  0.14025912    -0.24900
C2794       C  0.89650584  0.03053272  0.14373729     0.27800
H2795       H  0.95103089  0.08865137  0.16652295     0.13500
N2796       N  0.49911535  0.06955297  0.16082358    -0.82200
H2797       H  0.90845298  0.49488047  0.13280924     0.18400
N2798       N  0.86403860  0.02099747  0.13691083    -0.80800
H2799       H  0.51273090  0.09728076  0.15878177     0.34000
H2800       H  0.51431021  0.05923189  0.15672404     0.38500
H2801       H  0.86038124  0.50291726  0.12949143     0.34000
H2802       H  0.84252217  0.00725763  0.14317391     0.30700
H2803       H  0.81489912  0.00832471  0.16380344     0.34000
H2804       H  0.85509506  0.01147921  0.16616108     0.30700
H2805       H  0.91348243  0.18557121  0.16223307     0.38500
H2806       H  0.92763836  0.17937377  0.14803641     0.34000
C2807       C  0.85915087  0.23418269  0.16391306    -0.19700
C2808       C  0.84360567  0.25622047  0.16592122     0.36500
C2809       C  0.86234876  0.29303854  0.16248605    -0.25700
C2810       C  0.89502094  0.30800724  0.15572514     0.02900
C2811       C  0.90796050  0.28422286  0.15218414     0.27700
C2812       C  0.89069335  0.24815466  0.15667119    -0.24800
N2813       N  0.80844772  0.24112015  0.17134469    -0.82200
H2814       H  0.85132456  0.30992846  0.16544641     0.13500
C2815       C  0.91531487  0.34812179  0.15262938     0.02900
N2816       N  0.93838631  0.29629188  0.14391631    -0.80800
H2817       H  0.90251189  0.23142414  0.15466232     0.18300
C2818       C  0.95302743  0.36750765  0.15346671    -0.25600
C2819       C  0.97316586  0.40397501  0.14952770     0.36400
C2820       C  0.95551972  0.42317939  0.14607768    -0.19700
C2821       C  0.91801524  0.40520239  0.14657971    -0.24900
C2822       C  0.89775820  0.36763328  0.14899191     0.27800
H2823       H  0.96712626  0.35391145  0.15680595     0.13500
N2824       N  0.51168824  0.42126013  0.14859459    -0.82200
H2825       H  0.90442531  0.42004181  0.14410610     0.18400
N2826       N  0.85966032  0.34914587  0.14706850    -0.80800
H2827       H  0.52068025  0.40360315  0.15149925     0.34000
H2828       H  0.51884845  0.42715458  0.13898405     0.38500
H2829       H  0.85109523  0.36732524  0.14435934     0.34000
H2830       H  0.85398552  0.33125943  0.13943751     0.30700
H2831       H  0.93041595  0.27975030  0.13582163     0.34000
H2832       H  0.95776951  0.29263822  0.14864303     0.30700
H2833       H  0.80945155  0.25742672  0.17897099     0.38500
H2834       H  0.79182397  0.24288538  0.16445420     0.34000
C2835       C  0.56746808  0.03812275  0.14689950    -0.19700
C2836       C  0.58072083  0.02308908  0.15594873     0.36500
C2837       C  0.61689114  0.04307215  0.15987911    -0.25700
C2838       C  0.63981697  0.07821216  0.15525961     0.02900
C2839       C  0.62569981  0.09440689  0.14709554     0.27700
C2840       C  0.58976636  0.07433876  0.14310052    -0.24800
N2841       N  0.55809060  0.48739499  0.16075638    -0.82200
H2842       H  0.62749824  0.03098285  0.16641393     0.13500
C2843       C  0.67867543  0.09725320  0.15875344     0.02900
N2844       N  0.64843479  0.13037996  0.14227105    -0.80800
H2845       H  0.57957502  0.08632807  0.13634954     0.18300
C2846       C  0.70157362  0.08584630  0.15341248    -0.25600
C2847       C  0.73807737  0.10206450  0.15694539     0.36400
C2848       C  0.75214810  0.13076259  0.16585841    -0.19700
C2849       C  0.72955303  0.14344336  0.17057084    -0.24900
C2850       C  0.69284869  0.12614727  0.16752933     0.27800
H2851       H  0.69064564  0.06358739  0.14667882     0.13500
N2852       N  0.76010431  0.08796255  0.15212642    -0.82200
H2853       H  0.74011777  0.16536987  0.17744092     0.18400
N2854       N  0.66959623  0.13681372  0.17373516    -0.80800
H2855       H  0.74500211  0.06523501  0.14641921     0.34000
H2856       H  0.77930781  0.10756713  0.14610273     0.38500
H2857       H  0.68407750  0.15820546  0.18004465     0.34000
H2858       H  0.65137871  0.11492903  0.17929544     0.30700
H2859       H  0.63441781  0.13759226  0.13585801     0.34000
H2860       H  0.65532971  0.14834539  0.14992532     0.30700
H2861       H  0.53782614  0.48787601  0.16615870     0.38500
H2862       H  0.57223157  0.47991710  0.16700827     0.34000
C2863       C  0.95384093  0.05839087  0.68029154    -0.19700
C2864       C  0.91926729  0.03898934  0.67485766     0.36500
C2865       C  0.91126716  0.05219615  0.66382756    -0.25700
C2866       C  0.93727707  0.08393767  0.65788371     0.02900
C2867       C  0.97203804  0.10286251  0.66299465     0.27700
C2868       C  0.97981224  0.09023850  0.67421887    -0.24800
N2869       N  0.89217090  0.50594171  0.68044389    -0.82200
H2870       H  0.88442336  0.03772449  0.65994476     0.13500
C2871       C  0.92693565  0.09871152  0.64695737     0.02900
N2872       N  0.99934650  0.13466315  0.65667583    -0.80800
H2873       H  0.00669794  0.10501418  0.67802721     0.18300
C2874       C  0.93017153  0.13300255  0.64823590    -0.25600
C2875       C  0.91804551  0.14723581  0.63868410     0.36400
C2876       C  0.90183821  0.12641718  0.62764506    -0.19700
C2877       C  0.90004082  0.09270936  0.62609160    -0.24900
C2878       C  0.91241583  0.07856118  0.63569987     0.27800
H2879       H  0.94141420  0.14835748  0.65690652     0.13500
N2880       N  0.92166841  0.18256491  0.64024412    -0.82200
H2881       H  0.88768244  0.07678825  0.61762374     0.18400
N2882       N  0.90977046  0.04366900  0.63420254    -0.80800
H2883       H  0.93372319  0.19398993  0.64896020     0.34000
H2884       H  0.93903120  0.19930004  0.63310374     0.38500
H2885       H  0.89818649  0.03224535  0.62542796     0.34000
H2886       H  0.93582793  0.04765534  0.63400664     0.30700
H2887       H  0.52355686  0.14549702  0.66168402     0.34000
H2888       H  0.00392513  0.12665796  0.64775532     0.30700
H2889       H  0.88407061  0.48561315  0.67353840     0.38500
H2890       H  0.87012308  0.50903513  0.68274354     0.34000
C2891       C  0.94008204  0.39896207  0.68081389    -0.19700
C2892       C  0.91378322  0.39909782  0.67271545     0.36500
C2893       C  0.90280887  0.37694500  0.66185223    -0.25700
C2894       C  0.91785983  0.35523435  0.65879543     0.02900
C2895       C  0.94344842  0.35440882  0.66694164     0.27700
C2896       C  0.95450931  0.37649277  0.67783032    -0.24800
N2897       N  0.89928772  0.42265386  0.67521426    -0.82200
H2898       H  0.88296035  0.37715098  0.65554858     0.13500
C2899       C  0.90551628  0.33236340  0.64725721     0.02900
N2900       N  0.95795120  0.33105314  0.66412404    -0.80800
H2901       H  0.97469060  0.37635296  0.68396739     0.18300
C2902       C  0.92947015  0.33879532  0.63712885    -0.25600
C2903       C  0.91922327  0.31531493  0.62655149     0.36400
C2904       C  0.88443637  0.28501249  0.62625665    -0.19700
C2905       C  0.86000770  0.28013178  0.63604803    -0.24900
C2906       C  0.87019444  0.30339379  0.64656133     0.27800
H2907       H  0.95646525  0.36155019  0.63768448     0.13500
N2908       N  0.94431221  0.32130999  0.61645823    -0.82200
H2909       H  0.83315436  0.25703091  0.63574394     0.18400
N2910       N  0.84520869  0.29701252  0.65674855    -0.80800
H2911       H  0.96854772  0.34504326  0.61811032     0.34000
H2912       H  0.94993389  0.30000198  0.61665514     0.38500
H2913       H  0.82021143  0.27468276  0.65470247     0.34000
H2914       H  0.85464582  0.29029906  0.66490545     0.30700
H2915       H  0.97668417  0.33386262  0.67102254     0.34000
H2916       H  0.93695833  0.30432984  0.66473583     0.30700
H2917       H  0.91997843  0.44929980  0.67391514     0.38500
H2918       H  0.87956655  0.41851181  0.66855075     0.34000
C2919       C  0.60554568  0.05158336  0.68023117    -0.19700
C2920       C  0.62162133  0.03110457  0.67611089     0.36500
C2921       C  0.64443500  0.04263199  0.66541903    -0.25700
C2922       C  0.65177893  0.07413527  0.65874959     0.02900
C2923       C  0.63598473  0.09468813  0.66276215     0.27700
C2924       C  0.61309773  0.08327211  0.67346153    -0.24800
N2925       N  0.61491478  0.99874099  0.68276205    -0.82200
H2926       H  0.65699978  0.02718483  0.66231857     0.13500
C2927       C  0.67848443  0.08671609  0.64825714     0.02900
N2928       N  0.64334196  0.12706987  0.65597397    -0.80800
H2929       H  0.60062942  0.09894740  0.67637440     0.18300
C2930       C  0.66815021  0.08770571  0.63563654    -0.25600
C2931       C  0.69339014  0.09978791  0.62557438     0.36400
C2932       C  0.72976960  0.11146284  0.62830023    -0.19700
C2933       C  0.73947812  0.10943826  0.64098436    -0.24900
C2934       C  0.71444892  0.09768978  0.65094560     0.27800
H2935       H  0.64030502  0.07897759  0.63365795     0.13500
N2936       N  0.68222709  0.10088186  0.61275291    -0.82200
H2937       H  0.76708122  0.11791172  0.64328275     0.18400
N2938       N  0.72552604  0.09754634  0.66387428    -0.80800
H2939       H  0.65500263  0.09300290  0.61254135     0.34000
H2940       H  0.68502250  0.08150536  0.60747337     0.38500
H2941       H  0.75293517  0.10627676  0.66425669     0.34000
H2942       H  0.72165013  0.11646764  0.66900911     0.30700
H2943       H  0.62939526  0.13894419  0.66007135     0.34000
H2944       H  0.67060296  0.14567310  0.65700912     0.30700
H2945       H  0.62610527  0.00643564  0.69185827     0.38500
H2946       H  0.62803380  0.98652217  0.67829198     0.34000
C2947       C  0.78308731  0.06158953  0.56793255    -0.19700
C2948       C  0.76632771  0.06339147  0.55660754     0.36500
C2949       C  0.75226763  0.03391441  0.54820175    -0.25700
C2950       C  0.75392463  0.50259036  0.55102703     0.02900
C2951       C  0.77111498  0.50094250  0.56223673     0.27700
C2952       C  0.78619176  0.03084117  0.57048286    -0.24800
N2953       N  0.76484835  0.09557667  0.55343896    -0.82200
H2954       H  0.73957594  0.03516687  0.53944337     0.13500
C2955       C  0.73704508  0.47153071  0.54220956     0.02900
N2956       N  0.77280268  0.46878840  0.56524723    -0.80800
H2957       H  0.79943903  0.02978827  0.57912216     0.18300
C2958       C  0.75811360  0.45865833  0.53643422    -0.25600
C2959       C  0.74261748  0.42862642  0.52830629     0.36400
C2960       C  0.70564711  0.41135619  0.52594958    -0.19700
C2961       C  0.68504334  0.42553157  0.53104299    -0.24900
C2962       C  0.70017101  0.45504856  0.53941191     0.27800
H2963       H  0.78662850  0.47190251  0.53828835     0.13500
N2964       N  0.76448757  0.41605444  0.52231648    -0.82200
H2965       H  0.65715401  0.41359522  0.52843683     0.18400
N2966       N  0.67824281  0.46800867  0.54522655    -0.80800
H2967       H  0.77827161  0.41077111  0.52944205     0.34000
H2968       H  0.78356154  0.43711900  0.51669646     0.38500
H2969       H  0.65175859  0.45293254  0.54209315     0.34000
H2970       H  0.67793855  0.96357650  0.55504739     0.30700
H2971       H  0.78652693  0.47209430  0.57380304     0.34000
H2972       H  0.74658256  0.44782085  0.56674656     0.30700
H2973       H  0.74669149  0.09721489  0.55968204     0.38500
H2974       H  0.75435735  0.09346070  0.54428453     0.34000
C2975       C  0.59925842  0.30214748  0.52696273    -0.19700
C2976       C  0.59419480  0.31931561  0.53767362     0.36500
C2977       C  0.56374774  0.30059555  0.54529967    -0.25700
C2978       C  0.53790541  0.26509852  0.54238638     0.02900
C2979       C  0.54259208  0.24742219  0.53182058     0.27700
C2980       C  0.57363351  0.26595685  0.52430971    -0.24800
N2981       N  0.61930795  0.35606909  0.54072744    -0.82200
H2982       H  0.55992584  0.31409741  0.55344983     0.13500
C2983       C  0.50582534  0.24752561  0.55049249     0.02900
N2984       N  0.51573608  0.21101934  0.52872859    -0.80800
H2985       H  0.57785430  0.25211784  0.51637864     0.18300
C2986       C  0.97578719  0.25030431  0.54702802    -0.25600
C2987       C  0.94641392  0.23829638  0.55534660     0.36400
C2988       C  0.94727693  0.22286145  0.56717375    -0.19700
C2989       C  0.97684351  0.21886278  0.57032463    -0.24900
C2990       C  0.50654149  0.23167281  0.56218130     0.27800
H2991       H  0.97580517  0.26284111  0.53802165     0.13500
N2992       N  0.91544944  0.24076518  0.55168283    -0.82200
H2993       H  0.97715834  0.20665895  0.57936625     0.18400
N2994       N  0.53762478  0.22929489  0.56572257    -0.80800
H2995       H  0.91836859  0.25064750  0.54236363     0.34000
H2996       H  0.91419572  0.26000073  0.55756147     0.38500
H2997       H  0.53401597  0.21733770  0.57472188     0.34000
H2998       H  0.54016767  0.21197175  0.55923812     0.30700
H2999       H  0.52303197  0.20218080  0.52052289     0.34000
H3000       H  0.51479638  0.19422381  0.53618615     0.30700
H3001       H  0.62886861  0.35674241  0.54994215     0.38500
H3002       H  0.60567067  0.37076789  0.54080537     0.34000
C3003       C  0.70217705  0.30465843  0.52811926    -0.19700
C3004       C  0.69138227  0.26731518  0.52801375     0.36500
C3005       C  0.70819778  0.25444247  0.53621336    -0.25700
C3006       C  0.73428622  0.27747663  0.54492073     0.02900
C3007       C  0.74379202  0.31430290  0.54548609     0.27700
C3008       C  0.72750602  0.32743836  0.53708694    -0.24800
N3009       N  0.66242201  0.24140242  0.52028580    -0.82200
H3010       H  0.70038347  0.22596075  0.53593740     0.13500
C3011       C  0.75071451  0.26218915  0.55352253     0.02900
N3012       N  0.76963125  0.33804585  0.55463534    -0.80800
H3013       H  0.73452568  0.35559870  0.53754946     0.18300
C3014       C  0.78774454  0.27552086  0.55296964    -0.25600
C3015       C  0.80391770  0.26007334  0.56040093     0.36400
C3016       C  0.78247267  0.23087250  0.56870053    -0.19700
C3017       C  0.74536440  0.21770824  0.56920586    -0.24900
C3018       C  0.72935493  0.23332421  0.56181546     0.27800
H3019       H  0.80392179  0.29748061  0.54646258     0.13500
N3020       N  0.84180515  0.27342797  0.55930007    -0.82200
H3021       H  0.72879583  0.19553766  0.57557308     0.18400
N3022       N  0.69150261  0.22025342  0.56276551    -0.80800
H3023       H  0.85358823  0.29532932  0.55297356     0.34000
H3024       H  0.84525301  0.25281288  0.55527703     0.38500
H3025       H  0.67955196  0.19877519  0.56924452     0.34000
H3026       H  0.68813229  0.24123639  0.56649802     0.30700
H3027       H  0.77370899  0.36434286  0.55372937     0.34000
H3028       H  0.75881394  0.32897850  0.56373160     0.30700
H3029       H  0.64958603  0.25304184  0.51536058     0.38500
H3030       H  0.67314627  0.23117914  0.51355032     0.34000
C3031       C  0.70447316  0.41295455  0.49787827    -0.19700
C3032       C  0.73855944  0.42788778  0.49210797     0.36500
C3033       C  0.75690711  0.46493006  0.48851506    -0.25700
C3034       C  0.74251788  0.48788148  0.49105372     0.02900
C3035       C  0.70813409  0.47244980  0.49680706     0.27700
C3036       C  0.68920737  0.43520394  0.49966526    -0.24800
N3037       N  0.75519388  0.40592225  0.49056052    -0.82200
H3038       H  0.78281691  0.47603240  0.48389975     0.13500
C3039       C  0.76279251  0.02752581  0.48731733     0.02900
N3040       N  0.69313839  0.49494278  0.50033491    -0.80800
H3041       H  0.66335421  0.42395785  0.50433486     0.18300
C3042       C  0.74428946  0.04248467  0.48103897    -0.25600
C3043       C  0.76108361  0.07895744  0.47738131     0.36400
C3044       C  0.79863825  0.10131074  0.47897880    -0.19700
C3045       C  0.81730951  0.08700598  0.48556839    -0.24900
C3046       C  0.79967016  0.05063971  0.48999664     0.27800
H3047       H  0.71617287  0.02555198  0.47881687     0.13500
N3048       N  0.73888514  0.09223555  0.47210553    -0.82200
H3049       H  0.84594106  0.10383361  0.48686551     0.18400
N3050       N  0.81914029  0.03715604  0.49712668    -0.80800
H3051       H  0.72794261  0.07837534  0.46358983     0.34000
H3052       H  0.75339368  0.11979376  0.47002177     0.38500
H3053       H  0.84580816  0.05740232  0.49826984     0.34000
H3054       H  0.80787245  0.03058020  0.50627008     0.30700
H3055       H  0.66779752  0.47950268  0.50446895     0.34000
H3056       H  0.70978757  0.01301633  0.50737546     0.30700
H3057       H  0.73975980  0.38528764  0.48411025     0.38500
H3058       H  0.78063088  0.42105000  0.48646935     0.34000
C3059       C  0.91440038  0.21399065  0.47581913    -0.19700
C3060       C  0.94112169  0.24926793  0.47174853     0.36500
C3061       C  0.97638676  0.26430902  0.47608951    -0.25700
C3062       C  0.98640376  0.24659944  0.48500531     0.02900
C3063       C  0.95957062  0.21328071  0.49015225     0.27700
C3064       C  0.92409831  0.19697871  0.48530552    -0.24800
N3065       N  0.93338662  0.27199182  0.46386694    -0.82200
H3066       H  0.49620884  0.29079912  0.47265090     0.13500
C3067       C  0.52435048  0.26575788  0.48961978     0.02900
N3068       N  0.96783501  0.19709829  0.50070197    -0.80800
H3069       H  0.90404801  0.17071192  0.48885265     0.18300
C3070       C  0.53579068  0.29673523  0.49722035    -0.25600
C3071       C  0.57155944  0.31708224  0.50134215     0.36400
C3072       C  0.59651338  0.30556189  0.49827065    -0.19700
C3073       C  0.58564253  0.27586512  0.49002911    -0.24900
C3074       C  0.55004501  0.25630535  0.48544615     0.27800
H3075       H  0.51661395  0.30514199  0.49992460     0.13500
N3076       N  0.58251603  0.34892721  0.50901028    -0.82200
H3077       H  0.60444766  0.26699796  0.48753137     0.18400
N3078       N  0.54036787  0.22787396  0.47623180    -0.80800
H3079       H  0.56103924  0.35352533  0.51060973     0.34000
H3080       H  0.60167433  0.37104419  0.50380026     0.38500
H3081       H  0.56263114  0.22526008  0.47381375     0.34000
H3082       H  0.52183454  0.20339567  0.48041973     0.30700
H3083       H  0.94493093  0.17354947  0.50369933     0.34000
H3084       H  0.98601294  0.18913886  0.49759672     0.30700
H3085       H  0.91283083  0.27465433  0.46817337     0.38500
H3086       H  0.92577248  0.26126703  0.45484497     0.34000
C3087       C  0.80644563  0.21309838  0.48139053    -0.19700
C3088       C  0.82469163  0.25100895  0.48272383     0.36500
C3089       C  0.80645718  0.26898043  0.48689644    -0.25700
C3090       C  0.77009698  0.24983319  0.49036906     0.02900
C3091       C  0.75256471  0.21142620  0.49029319     0.27700
C3092       C  0.77073294  0.19354422  0.48561470    -0.24800
N3093       N  0.86176896  0.27167914  0.47951460    -0.82200
H3094       H  0.82068816  0.29830859  0.48689012     0.13500
C3095       C  0.75070067  0.27034356  0.49353226     0.02900
N3096       N  0.71624036  0.19073364  0.49476149    -0.80800
H3097       H  0.75647891  0.16434290  0.48474442     0.18300
C3098       C  0.71731613  0.26017715  0.48786922    -0.25600
C3099       C  0.69769051  0.27790019  0.49089891     0.36400
C3100       C  0.71189782  0.30699764  0.49960439    -0.19700
C3101       C  0.74675455  0.31938098  0.50424951    -0.24900
C3102       C  0.76565883  0.30078423  0.50174132     0.27800
H3103       H  0.70623035  0.23793831  0.48113654     0.13500
N3104       N  0.66282828  0.26535505  0.48557692    -0.82200
H3105       H  0.75823060  0.34227271  0.51071455     0.18400
N3106       N  0.79926020  0.31185962  0.50798648    -0.80800
H3107       H  0.65534180  0.24238090  0.47994574     0.34000
H3108       H  0.66473795  0.28554203  0.47940669     0.38500
H3109       H  0.80653384  0.33472103  0.51365629     0.34000
H3110       H  0.79561564  0.29098418  0.51416719     0.30700
H3111       H  0.70723653  0.16297817  0.49405359     0.34000
H3112       H  0.71608733  0.19638381  0.50446615     0.30700
H3113       H  0.87563972  0.28554177  0.48771168     0.38500
H3114       H  0.86483907  0.29102788  0.47275347     0.34000
C3115       C  0.93139914  0.46166030  0.86161976    -0.19700
C3116       C  0.92794563  0.47933125  0.87246109     0.36500
C3117       C  0.89901493  0.46055219  0.88080315    -0.25700
C3118       C  0.87344810  0.42430592  0.87852783     0.02900
C3119       C  0.87764188  0.40599806  0.86800424     0.27700
C3120       C  0.90666554  0.42491204  0.85963246    -0.24800
N3121       N  0.95278370  0.51679447  0.87472821    -0.82200
H3122       H  0.89573411  0.47475994  0.88883858     0.13500
C3123       C  0.84081117  0.40725756  0.88655916     0.02900
N3124       N  0.85233523  0.36841561  0.86586779    -0.80800
H3125       H  0.91002303  0.41101920  0.85151796     0.18300
C3126       C  0.80794167  0.39814491  0.88092339    -0.25600
C3127       C  0.77673952  0.38602580  0.88830821     0.36400
C3128       C  0.77826158  0.38178932  0.90168993    -0.19700
C3129       C  0.81136765  0.39038520  0.90723262    -0.24900
C3130       C  0.84263809  0.40323238  0.89981333     0.27800
H3131       H  0.80698119  0.40198441  0.87073636     0.13500
N3132       N  0.74393556  0.37896566  0.88223564    -0.82200
H3133       H  0.81300333  0.38721052  0.91741892     0.18400
N3134       N  0.87630310  0.41243999  0.90566599    -0.80800
H3135       H  0.74731604  0.38216375  0.87234337     0.34000
H3136       H  0.73791289  0.39873961  0.88537285     0.38500
H3137       H  0.87318368  0.40823560  0.91553120     0.34000
H3138       H  0.88446573  0.39465561  0.90211015     0.30700
H3139       H  0.85916145  0.35907101  0.85768210     0.34000
H3140       H  0.85428245  0.35377519  0.87355319     0.30700
H3141       H  0.96452875  0.51899099  0.88363446     0.38500
H3142       H  0.93836446  0.53068440  0.87517435     0.34000
C3143       C  0.53561296  0.46583138  0.85696250    -0.19700
C3144       C  0.57270996  0.48449321  0.85974701     0.36500
C3145       C  0.58671947  0.46814193  0.86770957    -0.25700
C3146       C  0.56467108  0.43395405  0.87312085     0.02900
C3147       C  0.52780124  0.41518398  0.87024639     0.27700
C3148       C  0.51365288  0.43139625  0.86219884    -0.24800
N3149       N  0.59676400  0.02029602  0.85507020    -0.82200
H3150       H  0.61497069  0.48283542  0.87004788     0.13500
C3151       C  0.58040382  0.41916697  0.88229536     0.02900
N3152       N  0.50486953  0.38002610  0.87566546    -0.80800
H3153       H  0.98494538  0.41766481  0.86042486     0.18300
C3154       C  0.56773989  0.41230159  0.89491243    -0.25600
C3155       C  0.58288767  0.39970853  0.90406982     0.36400
C3156       C  0.61116579  0.39343209  0.90043872    -0.19700
C3157       C  0.62373387  0.40045327  0.88776661    -0.24900
C3158       C  0.60874106  0.41328575  0.87868633     0.27800
H3159       H  0.54623309  0.41733562  0.89766305     0.13500
N3160       N  0.56895031  0.39248185  0.91687767    -0.82200
H3161       H  0.64544573  0.39588044  0.88489593     0.18400
N3162       N  0.62200849  0.42016449  0.86578811    -0.80800
H3163       H  0.54646089  0.39581397  0.91762062     0.34000
H3164       H  0.58838864  0.41220281  0.92278218     0.38500
H3165       H  0.64319413  0.41481398  0.86471549     0.34000
H3166       H  0.60141294  0.40195089  0.85988258     0.30700
H3167       H  0.97822825  0.37050853  0.87305641     0.34000
H3168       H  0.51313027  0.36236361  0.87204982     0.30700
H3169       H  0.58358302  0.03025711  0.84945651     0.38500
H3170       H  0.61591627  0.01893476  0.84926776     0.34000
C3171       C  0.60465764  0.22041036  0.90217433    -0.19700
C3172       C  0.58749455  0.18445426  0.90692071     0.36500
C3173       C  0.57323761  0.15542138  0.89827255    -0.25700
C3174       C  0.57676465  0.16151074  0.88508529     0.02900
C3175       C  0.59409317  0.19708672  0.88030364     0.27700
C3176       C  0.60767911  0.22611435  0.88888156    -0.24800
N3177       N  0.58491410  0.17735207  0.92040758    -0.82200
H3178       H  0.55967951  0.12782433  0.90180779     0.13500
C3179       C  0.56194196  0.13029696  0.87635325     0.02900
N3180       N  0.59878260  0.20359657  0.86677445    -0.88600
H3181       H  0.62084803  0.25340930  0.88508644     0.18300
C3182       C  0.53138632  0.12254275  0.86932111    -0.25600
C3183       C  0.51671405  0.09358024  0.86074620     0.36400
C3184       C  0.53247325  0.07148913  0.85931003    -0.19700
C3185       C  0.56273200  0.07895291  0.86654532    -0.24900
C3186       C  0.57802500  0.10853243  0.87494291     0.27800
H3187       H  0.51880041  0.13908204  0.87051786     0.13500
N3188       N  0.98516495  0.08621596  0.85385536    -0.82200
H3189       H  0.57439505  0.06163263  0.86571099     0.18400
N3190       N  0.61014948  0.11700778  0.88181084    -0.80800
H3191       H  0.99082809  0.10958716  0.84875606     0.34000
H3192       H  0.96503544  0.08167508  0.86045320     0.38500
H3193       H  0.61945613  0.09932023  0.87920971     0.34000
H3194       H  0.60360374  0.11245160  0.89149614     0.30700
H3195       H  0.61379959  0.23132781  0.86487235     0.34000
H3196       H  0.57354175  0.19482856  0.86277762     0.30700
H3197       H  0.61085829  0.18612083  0.92374070     0.38500
H3198       H  0.57035629  0.14952246  0.92220443     0.34000
C3199       C  0.74027048  0.37089588  0.78638674    -0.19700
C3200       C  0.75916480  0.35234959  0.78359853     0.36500
C3201       C  0.78957378  0.36868144  0.77575565    -0.25700
C3202       C  0.80081373  0.40277559  0.77029193     0.02900
C3203       C  0.78181873  0.42122656  0.77304564     0.27700
C3204       C  0.75171410  0.40505952  0.78099261    -0.24800
N3205       N  0.74693393  0.31622897  0.78800849    -0.82200
H3206       H  0.80376283  0.35417164  0.77353130     0.13500
C3207       C  0.83143462  0.41804756  0.76129759     0.02900
N3208       N  0.79256102  0.45635301  0.76787776    -0.80800
H3209       H  0.73667057  0.41892526  0.78275029     0.18300
C3210       C  0.82481740  0.41665427  0.74818271    -0.25600
C3211       C  0.85304526  0.43051256  0.73925420     0.36400
C3212       C  0.88896381  0.44705820  0.74360871    -0.19700
C3213       C  0.89521049  0.44799691  0.75685111    -0.24900
C3214       C  0.86682132  0.43339282  0.76570028     0.27800
H3215       H  0.79734896  0.40417823  0.74490789     0.13500
N3216       N  0.84511083  0.42737841  0.72584530    -0.82200
H3217       H  0.92239427  0.46017800  0.76037614     0.18400
N3218       N  0.87369264  0.43385111  0.77913655    -0.80800
H3219       H  0.81746619  0.91565447  0.72439535     0.34000
H3220       H  0.85239081  0.90910024  0.72206512     0.38500
H3221       H  0.90120229  0.44574004  0.78083606     0.34000
H3222       H  0.86510456  0.45028880  0.78357734     0.30700
H3223       H  0.79167046  0.45454358  0.75792780     0.34000
H3224       H  0.81900865  0.47387348  0.77061388     0.30700
H3225       H  0.74531120  0.31598034  0.79793195     0.38500
H3226       H  0.72124603  0.29972735  0.78434271     0.34000
C3227       C  0.63285878  0.36607164  0.78117134    -0.19700
C3228       C  0.59610749  0.35547977  0.78188448     0.36500
C3229       C  0.58170649  0.36963169  0.77308065    -0.25700
C3230       C  0.60302906  0.39327264  0.76340808     0.02900
C3231       C  0.63919986  0.40228678  0.76223809     0.27700
C3232       C  0.65369557  0.38829716  0.77108550    -0.24800
N3233       N  0.57356890  0.33037468  0.79150379    -0.82200
H3234       H  0.55383158  0.36259952  0.77384241     0.13500
C3235       C  0.58745508  0.40967545  0.75495097     0.02900
N3236       N  0.66108142  0.42599330  0.75218441    -0.80800
H3237       H  0.68163692  0.39569503  0.77035198     0.18300
C3238       C  0.60051198  0.44709906  0.75567450    -0.25600
C3239       C  0.58549006  0.46366792  0.74826212     0.36400
C3240       C  0.55727414  0.44235070  0.73985746    -0.19700
C3241       C  0.54442949  0.40498244  0.73901594    -0.24900
C3242       C  0.55900457  0.38828548  0.74662666     0.27800
H3243       H  0.62214902  0.46327807  0.76219230     0.13500
N3244       N  0.59898527  0.00194543  0.74915616    -0.82200
H3245       H  0.52250629  0.38875886  0.73260799     0.18400
N3246       N  0.54495144  0.34977921  0.74603555    -0.80800
H3247       H  0.61963413  0.01359046  0.75584810     0.34000
H3248       H  0.61025405  0.01344627  0.74032606     0.38500
H3249       H  0.52373097  0.33794890  0.73955563     0.34000
H3250       H  0.56518526  0.34528906  0.74248545     0.30700
H3251       H  0.68718046  0.43024604  0.75274128     0.34000
H3252       H  0.65057619  0.41284484  0.74351431     0.30700
H3253       H  0.57249696  0.30561369  0.78978327     0.38500
H3254       H  0.54736605  0.32579497  0.79081188     0.34000
C3255       C  0.63584747  0.26521457  0.78406348    -0.19700
C3256       C  0.64357739  0.23658207  0.78559787     0.36500
C3257       C  0.62773374  0.20690748  0.77730826    -0.25700
C3258       C  0.60450442  0.20522873  0.76765924     0.02900
C3259       C  0.59665217  0.23344482  0.76616898     0.27700
C3260       C  0.61266067  0.26332731  0.77433219    -0.24800
N3261       N  0.66766957  0.23686031  0.79514885    -0.82200
H3262       H  0.63367738  0.18502956  0.77835986     0.13500
C3263       C  0.58880868  0.17396802  0.75899015     0.02900
N3264       N  0.57214213  0.23136209  0.75646011    -0.80800
H3265       H  0.60649354  0.28504519  0.77326511     0.18300
C3266       C  0.55439372  0.14532281  0.76153244    -0.25600
C3267       C  0.53819231  0.11546787  0.75328762     0.36400
C3268       C  0.55687223  0.11471260  0.74225768    -0.19700
C3269       C  0.59120915  0.14372872  0.73968270    -0.24900
C3270       C  0.60756412  0.17328597  0.74805178     0.27800
H3271       H  0.54020646  0.14639032  0.76995303     0.13500
N3272       N  0.50279982  0.08614007  0.75599406    -0.82200
H3273       H  0.60560801  0.14288066  0.73129399     0.18400
N3274       N  0.64328175  0.20234724  0.74562967    -0.80800
H3275       H  0.99265356  0.09092468  0.76442992     0.34000
H3276       H  0.98565529  0.08586297  0.74864446     0.38500
H3277       H  0.65362023  0.19737979  0.73730885     0.34000
H3278       H  0.64177143  0.22584875  0.74397592     0.30700
H3279       H  0.56870981  0.25407163  0.75681992     0.34000
H3280       H  0.58375405  0.23210302  0.74760007     0.30700
H3281       H  0.67925020  0.26069594  0.80044202     0.38500
H3282       H  0.65270401  0.21560757  0.80150374     0.34000
C3283       C  0.63095434  0.37667526  0.80988970    -0.19700
C3284       C  0.64076376  0.41195489  0.80570352     0.36500
C3285       C  0.62001187  0.42779102  0.80911757    -0.25700
C3286       C  0.59108440  0.41090727  0.81768305     0.02900
C3287       C  0.58297909  0.37665681  0.82278945     0.27700
C3288       C  0.60271626  0.35977055  0.81870977    -0.24800
N3289       N  0.67204759  0.43205571  0.79795787    -0.82200
H3290       H  0.62669623  0.45364008  0.80489583     0.13500
C3291       C  0.57052292  0.43004576  0.82126343     0.02900
N3292       N  0.55472051  0.35900570  0.83202470    -0.80800
H3293       H  0.59525792  0.33283123  0.82207999     0.18300
C3294       C  0.53273965  0.41097850  0.82177195    -0.25600
C3295       C  0.51316071  0.42793191  0.82586460     0.36400
C3296       C  0.53137952  0.46531033  0.82864708    -0.19700
C3297       C  0.56854069  0.48501810  0.82688413    -0.24900
C3298       C  0.58844571  0.46772675  0.82393917     0.27800
H3299       H  0.51842324  0.38251553  0.81930293     0.13500
N3300       N  0.97457280  0.40701492  0.82752654    -0.82200
H3301       H  0.58227747  0.01362539  0.82873349     0.18400
N3302       N  0.62692175  0.48810276  0.82435505    -0.80800
H3303       H  0.96511442  0.37993267  0.82505595     0.34000
H3304       H  0.96883341  0.40719381  0.83721576     0.38500
H3305       H  0.63561693  0.01515643  0.82622022     0.34000
H3306       H  0.63519711  0.47784526  0.83187140     0.30700
H3307       H  0.55213888  0.33415814  0.83476666     0.34000
H3308       H  0.56207497  0.37526339  0.84018435     0.30700
H3309       H  0.68945697  0.45564476  0.80290421     0.38500
H3310       H  0.66442376  0.43997412  0.78963552     0.34000
C3311       C  0.73541914  0.37322729  0.81482188    -0.19700
C3312       C  0.75576268  0.41128835  0.81458798     0.36500
C3313       C  0.79156996  0.42890730  0.81867268    -0.25700
C3314       C  0.80753533  0.40921732  0.82332537     0.02900
C3315       C  0.78575467  0.37138971  0.82497161     0.27700
C3316       C  0.75011145  0.35364413  0.82052573    -0.24800
N3317       N  0.74030820  0.43210840  0.80988224    -0.82200
H3318       H  0.80732449  0.45809586  0.81777168     0.13500
C3319       C  0.84669186  0.42890315  0.82653161     0.02900
N3320       N  0.79969498  0.35096441  0.83117098    -0.80800
H3321       H  0.73451150  0.32437322  0.82097699     0.18300
C3322       C  0.86013161  0.45964963  0.83433140    -0.25600
C3323       C  0.89640286  0.47917978  0.83768139     0.36400
C3324       C  0.92043321  0.46725434  0.83349028    -0.19700
C3325       C  0.90752582  0.43780157  0.82503688    -0.24900
C3326       C  0.87105032  0.41880293  0.82138086     0.27800
H3327       H  0.84212260  0.46858562  0.83797412     0.13500
N3328       N  0.90780831  0.51130701  0.84519904    -0.82200
H3329       H  0.92567345  0.42885391  0.82160160     0.18400
N3330       N  0.85869924  0.38938596  0.81244322    -0.80800
H3331       H  0.89531714  0.00341324  0.85422958     0.34000
H3332       H  0.93528618  0.02463063  0.84674420     0.38500
H3333       H  0.87986569  0.38549761  0.80949789     0.34000
H3334       H  0.84973945  0.39677062  0.80433105     0.30700
H3335       H  0.78370238  0.33837605  0.83916743     0.34000
H3336       H  0.79727107  0.33069005  0.82491299     0.30700
H3337       H  0.75668392  0.44888102  0.80256994     0.38500
H3338       H  0.74071181  0.44885116  0.81727584     0.34000
C3339       C  0.61994549  0.26232224  0.81232481    -0.19700
C3340       C  0.63037844  0.25077072  0.82324970     0.36500
C3341       C  0.61045137  0.21423027  0.82719136    -0.25700
C3342       C  0.58175576  0.18802323  0.81981534     0.02900
C3343       C  0.57031827  0.20040914  0.80923321     0.27700
C3344       C  0.58771247  0.23760620  0.80635787    -0.24800
N3345       N  0.66205275  0.27544986  0.83000682    -0.82200
H3346       H  0.61859143  0.20613556  0.83577520     0.13500
C3347       C  0.56454410  0.14819909  0.82312293     0.02900
N3348       N  0.54279905  0.17520000  0.80085925    -0.80800
H3349       H  0.57817338  0.24675323  0.79841758     0.18300
C3350       C  0.52702857  0.12546482  0.82227839    -0.25600
C3351       C  0.51035593  0.08845552  0.82555810     0.36400
C3352       C  0.53078152  0.07408089  0.83074221    -0.19700
C3353       C  0.56816399  0.09595983  0.83114327    -0.24900
C3354       C  0.58519362  0.13230213  0.82707998     0.27800
H3355       H  0.51015247  0.13648103  0.81943587     0.13500
N3356       N  0.47244097  0.06593051  0.82413094    -0.82200
H3357       H  0.58423351  0.08495145  0.83495015     0.18400
N3358       N  0.62352778  0.15279028  0.82695226    -0.80800
H3359       H  0.46638235  0.06576349  0.81447191     0.34000
H3360       H  0.45969007  0.07765704  0.82915487     0.38500
H3361       H  0.63260274  0.15288192  0.83619994     0.34000
H3362       H  0.63297983  0.13949073  0.82101945     0.30700
H3363       H  0.53792488  0.18877428  0.79348972     0.34000
H3364       H  0.55246779  0.15952213  0.79652231     0.30700
H3365       H  0.65487163  0.27651156  0.83947198     0.38500
H3366       H  0.67952893  0.26493689  0.82996369     0.34000
C3367       C  0.86814739  0.23192909  0.19207559    -0.19700
C3368       C  0.90514036  0.24699159  0.19388704     0.36500
C3369       C  0.92272676  0.27510023  0.20273811    -0.25700
C3370       C  0.90370845  0.28846628  0.20968718     0.02900
C3371       C  0.86676856  0.27457250  0.20728312     0.27700
C3372       C  0.84957858  0.24633907  0.19855450    -0.24800
N3373       N  0.92475643  0.23371481  0.18675248    -0.82200
H3374       H  0.95125352  0.28648977  0.20421974     0.13500
C3375       C  0.92338294  0.31866561  0.21864886     0.02900
N3376       N  0.84605989  0.28887598  0.21318915    -0.80800
H3377       H  0.82145486  0.23574284  0.19675906     0.18300
C3378       C  0.94507511  0.35322633  0.21360403    -0.25600
C3379       C  0.96112272  0.38370342  0.22154730     0.36400
C3380       C  0.95443287  0.37948982  0.23488241    -0.19700
C3381       C  0.93465841  0.34430193  0.23997037    -0.24900
C3382       C  0.91906935  0.31376521  0.23196281     0.27800
H3383       H  0.94877202  0.35647503  0.20335502     0.13500
N3384       N  0.98380857  0.41883641  0.21604871    -0.82200
H3385       H  0.93020188  0.34061885  0.25017097     0.18400
N3386       N  0.89879274  0.27794881  0.23725908    -0.80800
H3387       H  0.48527117  0.41710991  0.20613352     0.34000
H3388       H  0.50981964  0.42792198  0.21946289     0.38500
H3389       H  0.89911316  0.27903410  0.24722839     0.34000
H3390       H  0.87209056  0.26741124  0.23454957     0.30700
H3391       H  0.82647631  0.26845646  0.21889256     0.34000
H3392       H  0.86148650  0.31078305  0.21915078     0.30700
H3393       H  0.94469372  0.25536299  0.18155106     0.38500
H3394       H  0.93724326  0.22479937  0.19319466     0.34000
C3395       C  0.93406440  0.04351696  0.23325735    -0.19700
C3396       C  0.92935518  0.03454458  0.22008596     0.36500
C3397       C  0.91723348  0.05235098  0.21187761    -0.25700
C3398       C  0.90913034  0.07839276  0.21650465     0.02900
C3399       C  0.91297848  0.08686558  0.22961188     0.27700
C3400       C  0.92543909  0.06941099  0.23784707    -0.24800
N3401       N  0.93626169  0.00702094  0.21508439    -0.82200
H3402       H  0.91320008  0.04525926  0.20184715     0.13500
C3403       C  0.89353137  0.09417960  0.20772696     0.02900
N3404       N  0.90405988  0.11309100  0.23449045    -0.80800
H3405       H  0.92898539  0.07656671  0.24786890     0.18300
C3406       C  0.85703915  0.08298945  0.20891830    -0.25600
C3407       C  0.84071375  0.09702550  0.20092550     0.36400
C3408       C  0.86157376  0.12360851  0.19180363    -0.19700
C3409       C  0.89808785  0.13459997  0.19049103    -0.24900
C3410       C  0.91422880  0.11967958  0.19825315     0.27800
H3411       H  0.84118278  0.06288791  0.21605404     0.13500
N3412       N  0.80293447  0.08411492  0.20194071    -0.82200
H3413       H  0.91403029  0.15507473  0.18348715     0.18400
N3414       N  0.95159835  0.13098250  0.19679002    -0.80800
H3415       H  0.79150788  0.06475182  0.20918385     0.34000
H3416       H  0.79113906  0.07086646  0.19341302     0.38500
H3417       H  0.96312428  0.15076361  0.18968332     0.34000
H3418       H  0.95344006  0.10868316  0.19352861     0.30700
H3419       H  0.90805904  0.11603944  0.24435272     0.34000
H3420       H  0.92186494  0.13812936  0.23040971     0.30700
H3421       H  0.91758981  0.48240925  0.21911182     0.38500
H3422       H  0.93217080  0.50433850  0.20519299     0.34000
C3423       C  0.60765241  0.05453348  0.23492106    -0.19700
C3424       C  0.60640233  0.06688264  0.22250292     0.36500
C3425       C  0.63595649  0.07792565  0.21433604    -0.25700
C3426       C  0.66658571  0.07721460  0.21842309     0.02900
C3427       C  0.66832728  0.06599657  0.23089411     0.27700
C3428       C  0.63881635  0.05483085  0.23906075    -0.24800
N3429       N  0.57549625  0.06877604  0.21833362    -0.82200
H3430       H  0.63551023  0.08788756  0.20485735     0.13500
C3431       C  0.69831957  0.09242691  0.21010091     0.02900
N3432       N  0.70017206  0.06616480  0.23517740    -0.80800
H3433       H  0.63979515  0.04540133  0.24857448     0.18300
C3434       C  0.72673760  0.12648442  0.21318361    -0.25600
C3435       C  0.75714631  0.14322121  0.20545564     0.36400
C3436       C  0.75939797  0.12567932  0.19434585    -0.19700
C3437       C  0.73154426  0.09041108  0.19167514    -0.24900
C3438       C  0.70063381  0.07379605  0.19934799     0.27800
H3439       H  0.72500671  0.14052887  0.22157225     0.13500
N3440       N  0.78512945  0.17843532  0.20887704    -0.82200
H3441       H  0.73376241  0.07599591  0.18350455     0.18400
N3442       N  0.67205278  0.03802996  0.19643201    -0.80800
H3443       H  0.79462622  0.17672174  0.21787478     0.34000
H3444       H  0.77401290  0.19540901  0.20967580     0.38500
H3445       H  0.67853860  0.02775083  0.18840507     0.34000
H3446       H  0.64963215  0.04020084  0.19395541     0.30700
H3447       H  0.69725441  0.05740953  0.24464873     0.34000
H3448       H  0.70323104  0.04729233  0.22968422     0.30700
H3449       H  0.57340805  0.08783095  0.22406708     0.38500
H3450       H  0.57899696  0.07844955  0.20896911     0.34000
C3451       C  0.61896217  0.40066653  0.35112900    -0.19700
C3452       C  0.58367511  0.39505852  0.35153307     0.36500
C3453       C  0.57110804  0.40685339  0.34120538    -0.25700
C3454       C  0.59297199  0.42345381  0.33053479     0.02900
C3455       C  0.62842939  0.43014808  0.33032919     0.27700
C3456       C  0.64120980  0.41921099  0.34069971    -0.24800
N3457       N  0.56029599  0.37606261  0.36204452    -0.82200
H3458       H  0.54386253  0.40204040  0.34125279     0.13500
C3459       C  0.57845481  0.43293350  0.31937262     0.02900
N3460       N  0.65089901  0.44695363  0.31938370    -0.80800
H3461       H  0.66832631  0.42366945  0.34036079     0.18300
C3462       C  0.58928924  0.46934792  0.31711408    -0.25600
C3463       C  0.57715135  0.47979353  0.30639072     0.36400
C3464       C  0.55434761  0.45311027  0.29754710    -0.19700
C3465       C  0.54361222  0.41653715  0.29986672    -0.24900
C3466       C  0.55567651  0.40621577  0.31067712     0.27800
H3467       H  0.60696030  0.48962340  0.32386567     0.13500
N3468       N  0.58701463  0.01723632  0.30476621    -0.82200
H3469       H  0.52590104  0.39598829  0.29320522     0.18400
N3470       N  0.54514289  0.36883033  0.31284850    -0.80800
H3471       H  0.60436370  0.03322864  0.31199217     0.34000
H3472       H  0.56375668  0.01914816  0.30576002     0.38500
H3473       H  0.52811000  0.35254195  0.30559943     0.34000
H3474       H  0.56819991  0.36643669  0.31229945     0.30700
H3475       H  0.67633433  0.44998228  0.32075713     0.34000
H3476       H  0.63964479  0.42933841  0.31165056     0.30700
H3477       H  0.55536092  0.34936718  0.36181687     0.38500
H3478       H  0.53548083  0.37470673  0.36089057     0.34000
C3479       C  0.53847048  0.10285936  0.29488505    -0.19700
C3480       C  0.51345660  0.10871258  0.30194323     0.36500
C3481       C  0.52559313  0.13436403  0.31190040    -0.25700
C3482       C  0.56179814  0.15329613  0.31532795     0.02900
C3483       C  0.58674915  0.14762104  0.30839408     0.27700
C3484       C  0.57493177  0.12270464  0.29824173    -0.24800
N3485       N  0.47572646  0.08784372  0.29935662    -0.82200
H3486       H  0.50654654  0.13873888  0.31733651     0.13500
C3487       C  0.57337691  0.17852573  0.32637931     0.02900
N3488       N  0.62401965  0.16705298  0.31178278    -0.80800
H3489       H  0.59438769  0.11843420  0.29304768     0.18300
C3490       C  0.58518867  0.16948692  0.33753135    -0.25600
C3491       C  0.59882800  0.19372292  0.34788974     0.36400
C3492       C  0.60158263  0.22824304  0.34691848    -0.19700
C3493       C  0.58807808  0.23640614  0.33592129    -0.24900
C3494       C  0.57397111  0.21191627  0.32568072     0.27800
H3495       H  0.58413578  0.14349278  0.33806858     0.13500
N3496       N  0.61114244  0.18383689  0.35911332    -0.82200
H3497       H  0.58932768  0.26245357  0.33515986     0.18400
N3498       N  0.56110669  0.22117559  0.31444312    -0.80800
H3499       H  0.60911190  0.15842455  0.35795414     0.34000
H3500       H  0.59368883  0.18099677  0.36656577     0.38500
H3501       H  0.56311728  0.24661217  0.31547174     0.34000
H3502       H  0.57794499  0.22333801  0.30685845     0.30700
H3503       H  0.63892069  0.15956691  0.30586225     0.34000
H3504       H  0.63335048  0.19456600  0.31011279     0.30700
H3505       H  0.96703416  0.06145933  0.30191809     0.38500
H3506       H  0.96151351  0.09709328  0.30486057     0.34000
C3507       C  0.89246967  0.43300578  0.29572665    -0.19700
C3508       C  0.89274164  0.40711019  0.30421089     0.36500
C3509       C  0.87056337  0.39647924  0.31504689    -0.25700
C3510       C  0.84880183  0.41158509  0.31776526     0.02900
C3511       C  0.84834209  0.43725266  0.30938059     0.27700
C3512       C  0.87021134  0.44774001  0.29845646    -0.24800
N3513       N  0.91636837  0.39262491  0.30212080    -0.82200
H3514       H  0.87073310  0.37680962  0.32158691     0.13500
C3515       C  0.82549689  0.39918186  0.32919119     0.02900
N3516       N  0.82561478  0.45248039  0.31200026    -0.80800
H3517       H  0.87009149  0.46778371  0.29209964     0.18300
C3518       C  0.83088297  0.42369498  0.33907661    -0.25600
C3519       C  0.80721210  0.41332420  0.34954283     0.36400
C3520       C  0.77727109  0.37813154  0.34983301    -0.19700
C3521       C  0.77310047  0.35319732  0.34027134    -0.24900
C3522       C  0.79712518  0.36325907  0.33000487     0.27800
H3523       H  0.85318800  0.45110947  0.33847184     0.13500
N3524       N  0.81230493  0.43887576  0.35944006    -0.82200
H3525       H  0.75023681  0.32605326  0.34060951     0.18400
N3526       N  0.79222127  0.33750992  0.32019426    -0.80800
H3527       H  0.83487950  0.46395674  0.35750543     0.34000
H3528       H  0.81784621  0.42945489  0.36786291     0.38500
H3529       H  0.77030644  0.31213543  0.32230929     0.34000
H3530       H  0.78607169  0.34625790  0.31173363     0.30700
H3531       H  0.82869642  0.47125427  0.30496174     0.34000
H3532       H  0.79907350  0.43148358  0.31149070     0.30700
H3533       H  0.94259399  0.41378395  0.30336527     0.38500
H3534       H  0.91228073  0.37318288  0.30902957     0.34000
C3535       C  0.72424082  0.45070119  0.40816868    -0.19700
C3536       C  0.76076481  0.47799391  0.40737548     0.36500
C3537       C  0.77408427  0.50785579  0.41573409    -0.25700
C3538       C  0.75211301  0.01083586  0.42503794     0.02900
C3539       C  0.71565403  0.48422567  0.42568730     0.27700
C3540       C  0.70208497  0.45463570  0.41722077    -0.24800
N3541       N  0.78408974  0.47596438  0.39793376    -0.82200
H3542       H  0.80197622  0.52873759  0.41514618     0.13500
C3543       C  0.76779991  0.04197808  0.43407502     0.02900
N3544       N  0.69256636  0.98722431  0.43498819    -0.80800
H3545       H  0.67411629  0.43404943  0.41790404     0.18300
C3546       C  0.75613200  0.06755908  0.43354362    -0.25600
C3547       C  0.77101461  0.09814514  0.44150839     0.36400
C3548       C  0.79788017  0.10333948  0.45031135    -0.19700
C3549       C  0.80953617  0.07781060  0.45087338    -0.24900
C3550       C  0.79480670  0.04717255  0.44296070     0.27800
H3551       H  0.73555991  0.06394712  0.42679642     0.13500
N3552       N  0.75832106  0.12356307  0.44077259    -0.82200
H3553       H  0.83050998  0.08182420  0.45749250     0.18400
N3554       N  0.80742566  0.02172266  0.44448460    -0.80800
H3555       H  0.76243648  0.13369221  0.43146988     0.34000
H3556       H  0.73073157  0.10972834  0.44255385     0.38500
H3557       H  0.83395284  0.03423005  0.44127946     0.34000
H3558       H  0.79282141  0.49834173  0.43904573     0.30700
H3559       H  0.66646941  0.46556218  0.43419946     0.34000
H3560       H  0.70163609  0.98510054  0.44401892     0.30700
H3561       H  0.78940211  0.45549439  0.40074540     0.38500
H3562       H  0.80886733  0.49984883  0.39784731     0.34000
C3563       C  0.55634797  0.27039811  0.40815274    -0.19700
C3564       C  0.55085775  0.28871069  0.41841886     0.36500
C3565       C  0.51977837  0.27044366  0.42590193    -0.25700
C3566       C  0.99454882  0.23429386  0.42347163     0.02900
C3567       C  0.00033583  0.21550939  0.41351998     0.27700
C3568       C  0.53138823  0.23368352  0.40598117    -0.24800
N3569       N  0.57698972  0.32559218  0.42129421    -0.82200
H3570       H  0.51500400  0.28453269  0.43363368     0.13500
C3571       C  0.96115069  0.21756141  0.43100145     0.02900
N3572       N  0.97418603  0.17845952  0.41089789    -0.80800
H3573       H  0.53567385  0.21948295  0.39817466     0.18300
C3574       C  0.93292906  0.22259354  0.42700763    -0.25600
C3575       C  0.90320710  0.21309467  0.43490988     0.36400
C3576       C  0.90124280  0.19745288  0.44704722    -0.19700
C3577       C  0.92805769  0.18897654  0.45031151    -0.24900
C3578       C  0.95865816  0.20018115  0.44266341     0.27800
H3579       H  0.93490409  0.23586258  0.41796799     0.13500
N3580       N  0.87636556  0.22130019  0.43071210    -0.82200
H3581       H  0.92587674  0.17472347  0.45910922     0.18400
N3582       N  0.98791840  0.19560830  0.44696757    -0.80800
H3583       H  0.86537139  0.20698517  0.42226622     0.34000
H3584       H  0.88887233  0.24891046  0.42853849     0.38500
H3585       H  0.98237213  0.18352298  0.45599127     0.34000
H3586       H  0.49033275  0.17768493  0.44075007     0.30700
H3587       H  0.98224635  0.16875764  0.40311571     0.34000
H3588       H  0.97319094  0.16287901  0.41876315     0.30700
H3589       H  0.60045727  0.32585290  0.42408667     0.38500
H3590       H  0.56870854  0.33506835  0.42909020     0.34000
C3591       C  0.72036829  0.27834709  0.40969321    -0.19700
C3592       C  0.71358172  0.24221678  0.40924443     0.36500
C3593       C  0.72629304  0.22917888  0.41910679    -0.25700
C3594       C  0.74539457  0.25137660  0.42940563     0.02900
C3595       C  0.75158544  0.28716162  0.43000333     0.27700
C3596       C  0.73933507  0.30038607  0.42008753    -0.24800
N3597       N  0.69464830  0.21919906  0.39866019    -0.82200
H3598       H  0.72221018  0.20189701  0.41860030     0.13500
C3599       C  0.76255655  0.23829591  0.43860696     0.02900
N3600       N  0.77048929  0.30990666  0.44065895    -0.80800
H3601       H  0.74409023  0.32790670  0.42059669     0.18300
C3602       C  0.80004049  0.25685122  0.43904573    -0.25600
C3603       C  0.81862955  0.24440020  0.44646784     0.36400
C3604       C  0.79931047  0.21152536  0.45325890    -0.19700
C3605       C  0.76175740  0.19364336  0.45329064    -0.24900
C3606       C  0.74305008  0.20675409  0.44613924     0.27800
H3607       H  0.81517426  0.28112862  0.43336331     0.13500
N3608       N  0.85697945  0.26570053  0.44674366    -0.82200
H3609       H  0.74682441  0.16897349  0.45877672     0.18400
N3610       N  0.70460342  0.18772521  0.44691898    -0.80800
H3611       H  0.86375115  0.29147591  0.45028391     0.34000
H3612       H  0.86771276  0.25488364  0.45298272     0.38500
H3613       H  0.69531288  0.16239382  0.44264302     0.34000
H3614       H  0.69354915  0.20111305  0.44195605     0.30700
H3615       H  0.77297173  0.33555670  0.43964026     0.34000
H3616       H  0.75495408  0.29832007  0.44882779     0.30700
H3617       H  0.71050791  0.23021952  0.39050979     0.38500
H3618       H  0.69163317  0.19340645  0.39988306     0.34000
Zn3619     Zn  0.66742921  0.83730731  0.36114432     1.49700
Zn3620     Zn  0.71713806  0.86027949  0.38546972     1.49400
Zn3621     Zn  0.64171533  0.85878689  0.38625387     1.49100
Zn3622     Zn  0.64396959  0.78324176  0.38370409     1.49500
O3623       O  0.66749786  0.83500538  0.37942394    -1.84000
O3624       O  0.71591319  0.85362145  0.35409009    -0.74600
O3625       O  0.72811018  0.90575142  0.39538701    -0.74400
O3626       O  0.62298543  0.87800676  0.37187305    -0.74000
O3627       O  0.75260610  0.87351485  0.37073249    -0.74600
O3628       O  0.65123148  0.87075893  0.35531633    -0.74200
O3629       O  0.67486340  0.90189830  0.39739151    -0.74800
O3630       O  0.60147121  0.77096145  0.39492362    -0.74200
O3631       O  0.72403344  0.82725197  0.39756962    -0.75000
O3632       O  0.60042442  0.82261153  0.39713814    -0.74400
O3633       O  0.67682934  0.77257078  0.39443567    -0.74800
O3634       O  0.62459657  0.74994291  0.36807601    -0.74700
O3635       O  0.63437710  0.78994619  0.35291532    -0.74500
C3636       C  0.74719092  0.86793828  0.35878324     0.77300
C3637       C  0.70837318  0.91789539  0.39979241     0.77800
C3638       C  0.63173355  0.88253110  0.36007862     0.76700
C3639       C  0.58778185  0.78903947  0.39963488     0.77100
C3640       C  0.70656037  0.79333999  0.39990288     0.78200
C3641       C  0.62090822  0.75727423  0.35656430     0.77300
Zn3642     Zn  0.96656797  0.51507529  0.26927479     1.49700
Zn3643     Zn  0.99572490  0.99265370  0.24512401     1.49400
Zn3644     Zn  0.54423231  0.52326170  0.26987351     1.49100
Zn3645     Zn  0.97554433  0.94366867  0.26975676     1.49500
O3646       O  0.99542360  0.99366958  0.26359113    -1.84000
O3647       O  0.94652903  0.52990630  0.25420378    -0.74600
O3648       O  0.54520387  0.52121795  0.23830094    -0.74400
O3649       O  0.54928947  0.56455992  0.28092719    -0.74000
O3650       O  0.96767674  0.51392071  0.23757590    -0.74600
O3651       O  0.49512869  0.55857629  0.28061497    -0.74200
O3652       O  0.58005583  0.54173098  0.25539381    -0.74800
O3653       O  0.50869037  0.93980704  0.28231321    -0.74200
O3654       O  0.97659054  0.94234155  0.23849500    -0.75000
O3655       O  0.55637727  0.99473193  0.28200495    -0.74400
O3656       O  0.96427148  0.90723978  0.25550412    -0.74800
O3657       O  0.93210186  0.92999460  0.28045190    -0.74700
O3658       O  0.92769245  0.97995374  0.28107912    -0.74500
C3659       C  0.94987634  0.52793849  0.24215120     0.77300
C3660       C  0.57599927  0.53873537  0.24332713     0.77800
C3661       C  0.52710167  0.57421400  0.28479638     0.76700
C3662       C  0.53933644  0.96284666  0.28654808     0.77100
C3663       C  0.96597911  0.91133247  0.24342639     0.78200
C3664       C  0.91809972  0.94797829  0.28495063     0.77300
C3665       C  0.66329591  0.83580903  0.81133179     0.45600
H3666       H  0.66027342  0.83654881  0.82183289    -0.03400
C3667       C  0.67070607  0.83485057  0.78662055     0.45600
H3668       H  0.67393275  0.83438884  0.77609986    -0.03400
C3669       C  0.64706358  0.85586130  0.80383950    -0.17100
C3670       C  0.70296426  0.85420213  0.80666711    -0.16900
C3671       C  0.64475458  0.79693830  0.80547845    -0.17300
C3672       C  0.65001270  0.85379236  0.79079437    -0.17200
C3673       C  0.70612564  0.85355360  0.79365501    -0.16800
C3674       C  0.65040095  0.79731336  0.79250212    -0.17100
C3675       C  0.99326104  0.50072032  0.83203444     0.45600
H3676       H  0.99057014  0.50077950  0.82150382    -0.03400
C3677       C  0.00003073  0.50092142  0.85680341     0.45600
H3678       H  0.00311380  0.50084236  0.86732623    -0.03400
C3679       C  0.51345741  0.53920827  0.83797369    -0.17100
C3680       C  0.95693091  0.98152826  0.83939494    -0.16900
C3681       C  0.51448064  0.98182681  0.83677569    -0.17300
C3682       C  0.51611125  0.53879931  0.85102136    -0.17200
C3683       C  0.96128210  0.98104907  0.85239716    -0.16800
C3684       C  0.51803790  0.98270452  0.84978410    -0.17100
C3685       C  0.66983273  0.83909947  0.49947962     0.45600
H3686       H  0.67026735  0.83882919  0.48890096    -0.03400
C3687       C  0.66898624  0.84084616  0.52439331     0.45600
H3688       H  0.66916316  0.84170039  0.53498479    -0.03400
C3689       C  0.68929933  0.82045312  0.50602875    -0.17100
C3690       C  0.68858169  0.87802814  0.50513363    -0.16900
C3691       C  0.63129835  0.82058880  0.50547038    -0.17300
C3692       C  0.68744378  0.82100490  0.51915543    -0.17200
C3693       C  0.68807828  0.87818637  0.51817822    -0.16800
C3694       C  0.63165516  0.82126656  0.51862893    -0.17100
C3695       C  0.84128818  0.67496879  0.47741627     0.45600
H3696       H  0.84448322  0.67532016  0.48793055    -0.03400
C3697       C  0.83313437  0.67387108  0.45274066     0.45600
H3698       H  0.82858602  0.67257317  0.44233460    -0.03400
C3699       C  0.82132996  0.69501791  0.47297175    -0.17100
C3700       C  0.87755878  0.69375510  0.46977396    -0.16900
C3701       C  0.81890520  0.63600069  0.47162082    -0.17300
C3702       C  0.81761459  0.69452749  0.45999656    -0.17200
C3703       C  0.87251392  0.69081362  0.45667359    -0.16800
C3704       C  0.81543687  0.63623468  0.45858298    -0.17100
Zn3705     Zn  0.83889889  0.67394746  0.61534065     1.49700
Zn3706     Zn  0.78824340  0.64810046  0.59169391     1.49400
Zn3707     Zn  0.86399733  0.72283100  0.59088438     1.49100
Zn3708     Zn  0.86263139  0.64593698  0.59184734     1.49500
O3709       O  0.83839681  0.67270788  0.59715169    -1.84000
O3710       O  0.79093153  0.64427138  0.62276972    -0.74600
O3711       O  0.77827257  0.68199966  0.58116548    -0.74400
O3712       O  0.88161149  0.76032622  0.60532491    -0.74000
O3713       O  0.75285144  0.62801170  0.60673526    -0.74600
O3714       O  0.85666492  0.72325211  0.62176144    -0.74200
O3715       O  0.83112994  0.73225985  0.58003416    -0.74800
O3716       O  0.90412013  0.67728343  0.58048933    -0.74200
O3717       O  0.78000619  0.60690627  0.58017686    -0.75000
O3718       O  0.90477616  0.73001142  0.57947817    -0.74400
O3719       O  0.82971400  0.60287581  0.58127486    -0.74800
O3720       O  0.88192671  0.63000554  0.60669155    -0.74700
O3721       O  0.86939871  0.65609124  0.62268258    -0.74500
C3722       C  0.75904766  0.62842197  0.61864906     0.77300
C3723       C  0.79817439  0.71417925  0.57705600     0.77800
C3724       C  0.87390950  0.75496120  0.61717445     0.76700
C3725       C  0.91712388  0.70938717  0.57621564     0.77100
C3726       C  0.79832782  0.59199147  0.57699283     0.78200
C3727       C  0.88372072  0.63825200  0.61845506     0.77300
Zn3728     Zn  0.95046628  0.98052219  0.70786910     1.49700
Zn3729     Zn  0.52762710  0.55231773  0.70695508     1.49400
Zn3730     Zn  0.50120472  0.50136906  0.73163067     1.49100
Zn3731     Zn  0.52226860  0.97512087  0.70606761     1.49500
O3732       O  0.50044936  0.50238857  0.71312053    -1.84000
O3733       O  0.94353848  0.51351191  0.69600907    -0.74600
O3734       O  0.54516919  0.58791667  0.72162561    -0.74400
O3735       O  0.95165035  0.97542861  0.73927108    -0.74000
O3736       O  0.99721137  0.56247077  0.69520352    -0.74600
O3737       O  0.91577650  0.96481864  0.72278719    -0.74200
O3738       O  0.52511418  0.55166425  0.73858895    -0.74800
O3739       O  0.53906822  0.95444950  0.72003626    -0.74200
O3740       O  0.56872196  0.56052006  0.69539077    -0.75000
O3741       O  0.52830460  0.97681807  0.73770444    -0.74400
O3742       O  0.56326174  0.50599441  0.69429139    -0.74800
O3743       O  0.98791404  0.93583267  0.69462393    -0.74700
O3744       O  0.93753577  0.93792700  0.69660997    -0.74500
C3745       C  0.96507061  0.54436757  0.69129728     0.77300
C3746       C  0.54138881  0.58314525  0.73366821     0.77800
C3747       C  0.92030664  0.96326589  0.73473171     0.76700
C3748       C  0.54066691  0.95868446  0.73209929     0.77100
C3749       C  0.57825252  0.53889489  0.69070304     0.78200
C3750       C  0.95562361  0.92498387  0.69146124     0.77300
C3751       C  0.82919963  0.66170201  0.19025763     0.45600
H3752       H  0.83169100  0.66220875  0.20080678    -0.03400
C3753       C  0.82478923  0.66075937  0.16540249     0.45600
H3754       H  0.82322825  0.66076464  0.15484785    -0.03400
C3755       C  0.84554715  0.64107363  0.18393308    -0.17100
C3756       C  0.79058570  0.64361600  0.18541536    -0.16900
C3757       C  0.84815420  0.69925604  0.18416977    -0.17300
C3758       C  0.84328279  0.63985818  0.17086565    -0.17200
C3759       C  0.78774397  0.64357478  0.17228692    -0.16800
C3760       C  0.84576491  0.69946888  0.17114350    -0.17100
C3761       C  0.99718671  0.49689646  0.12020937     0.45600
H3762       H  0.99815105  0.49605060  0.10963836    -0.03400
C3763       C  0.99450492  0.49680360  0.14505574     0.45600
H3764       H  0.99291373  0.49636630  0.15562557    -0.03400
C3765       C  0.97966941  0.51804409  0.12546865    -0.17100
C3766       C  0.97610645  0.95928365  0.12597419    -0.16900
C3767       C  0.53429505  0.51460021  0.12631950    -0.17300
C3768       C  0.97657317  0.51692907  0.13861298    -0.17200
C3769       C  0.97497821  0.95850201  0.13901590    -0.16800
C3770       C  0.53362895  0.51569157  0.13948065    -0.17100
Zn3771     Zn  0.64436072  0.86491049  0.93610600     1.49700
Zn3772     Zn  0.66544364  0.83437687  0.91199607     1.49400
Zn3773     Zn  0.71347732  0.85292994  0.93654933     1.49100
Zn3774     Zn  0.63523424  0.78534313  0.93685771     1.49500
O3775       O  0.66460275  0.83452968  0.93045313    -1.84000
O3776       O  0.62629944  0.88214329  0.92133792    -0.74600
O3777       O  0.71545159  0.85659973  0.90504929    -0.74400
O3778       O  0.72600877  0.89534307  0.94778179    -0.74000
O3779       O  0.64162264  0.86069039  0.90463292    -0.74600
O3780       O  0.68121345  0.90741363  0.94614634    -0.74200
O3781       O  0.74951148  0.86825392  0.92213478    -0.74800
O3782       O  0.66283779  0.77115914  0.94872352    -0.74200
O3783       O  0.63942041  0.78377685  0.90555274    -0.75000
O3784       O  0.71834968  0.81731085  0.94790296    -0.74400
O3785       O  0.61567243  0.74904675  0.92258492    -0.74800
O3786       O  0.59578087  0.78202572  0.94788753    -0.74700
O3787       O  0.60310587  0.83760086  0.94836141    -0.74500
C3788       C  0.62714954  0.87805223  0.90932377     0.77300
C3789       C  0.74613973  0.86834149  0.91005962     0.77800
C3790       C  0.71135508  0.91411482  0.95068366     0.76700
C3791       C  0.69524872  0.78669315  0.95238498     0.77100
C3792       C  0.62073250  0.75266402  0.91057530     0.78200
C3793       C  0.58722277  0.80481706  0.95212002     0.77300
Zn3794     Zn  0.82951026  0.66373936  0.06441772     1.49700
Zn3795     Zn  0.77962432  0.63511439  0.04021579     1.49400
Zn3796     Zn  0.85058297  0.71433452  0.03975999     1.49100
Zn3797     Zn  0.85811178  0.64332286  0.03965350     1.49500
O3798       O  0.82937607  0.66421100  0.04593335    -1.84000
O3799       O  0.77986194  0.63664096  0.07161244    -0.74600
O3800       O  0.76733408  0.66542833  0.02891424    -0.74400
O3801       O  0.86668267  0.74965504  0.05449583    -0.74000
O3802       O  0.74367091  0.61497087  0.05497123    -0.74600
O3803       O  0.85243164  0.71398304  0.07147572    -0.74200
O3804       O  0.81529223  0.72042474  0.02888689    -0.74800
O3805       O  0.89813976  0.67802998  0.02844483    -0.74200
O3806       O  0.77435276  0.59489735  0.02863323    -0.75000
O3807       O  0.89261412  0.72720979  0.02790507    -0.74400
O3808       O  0.82928422  0.60229635  0.02785118    -0.74800
O3809       O  0.87788120  0.62645365  0.05392239    -0.74700
O3810       O  0.85676489  0.64043441  0.07106816    -0.74500
C3811       C  0.74849778  0.61880829  0.06701078     0.77300
C3812       C  0.78392046  0.69805643  0.02499239     0.77800
C3813       C  0.86589722  0.74541980  0.06655543     0.76700
C3814       C  0.90759953  0.70941931  0.02408950     0.77100
C3815       C  0.79690098  0.58650432  0.02416098     0.78200
C3816       C  0.87477879  0.62726372  0.06599516     0.77300
C3817       C  0.70583325  0.77023062  0.96273453    -0.19700
C3818       C  0.68251129  0.75251095  0.97313382     0.36500
C3819       C  0.69483029  0.74083427  0.98350346    -0.25700
C3820       C  0.72989555  0.74681746  0.98374620     0.02900
C3821       C  0.75288335  0.76338388  0.97325587     0.27700
C3822       C  0.74068783  0.77519934  0.96286885    -0.24800
N3823       N  0.64690409  0.74764911  0.97337296    -0.82200
H3824       H  0.67727273  0.72760248  0.99156034     0.13500
C3825       C  0.74180662  0.73435811  0.99487889     0.02900
N3826       N  0.78821116  0.76752645  0.97311284    -0.80800
H3827       H  0.75849846  0.78856368  0.95488643     0.18300
C3828       C  0.73385933  0.69824225  0.99527960    -0.25600
C3829       C  0.74641540  0.68551307  0.00524310     0.36400
C3830       C  0.76730676  0.70959980  0.01504978    -0.19700
C3831       C  0.77433206  0.74560959  0.01480324    -0.24900
C3832       C  0.76127014  0.75811597  0.00488204     0.27800
H3833       H  0.71850884  0.68016525  0.98759546     0.13500
N3834       N  0.73909454  0.64859215  0.00515671    -0.82200
H3835       H  0.79003147  0.76397951  0.02236650     0.18400
N3836       N  0.76699374  0.79446900  0.00505196    -0.80800
H3837       H  0.72277380  0.63443059  0.99744201     0.34000
H3838       H  0.76342849  0.64903443  0.00374626     0.38500
H3839       H  0.78107095  0.80812028  0.01323449     0.34000
H3840       H  0.78322149  0.80843199  0.99727196     0.30700
H3841       H  0.80136909  0.77941443  0.96456479     0.34000
H3842       H  0.80305476  0.78552921  0.98038232     0.30700
H3843       H  0.64929280  0.77333906  0.97392272     0.38500
H3844       H  0.63318301  0.73373510  0.98160407     0.34000
C3845       C  0.78623041  0.55990492  0.01370550    -0.19700
C3846       C  0.75086472  0.53090436  0.01254710     0.36500
C3847       C  0.74138518  0.50875000  0.00169187    -0.25700
C3848       C  0.76655782  0.51505983  0.99208770     0.02900
C3849       C  0.80202200  0.54338282  0.99330402     0.27700
C3850       C  0.81156983  0.56558706  0.00413717    -0.24800
N3851       N  0.72487882  0.52392813  0.02240463    -0.82200
H3852       H  0.71399131  0.98630283  0.00074665     0.13500
C3853       C  0.75496282  0.99068869  0.98100435     0.02900
N3854       N  0.82790684  0.54970539  0.98346344    -0.80800
H3855       H  0.83866724  0.58803051  0.00494163     0.18300
C3856       C  0.74376729  0.00032296  0.96984899    -0.25600
C3857       C  0.73013049  0.97609761  0.95954379     0.36400
C3858       C  0.72843609  0.94218414  0.96048556    -0.19700
C3859       C  0.74077416  0.93323027  0.97152706    -0.24900
C3860       C  0.75366055  0.95704924  0.98188165     0.27800
H3861       H  0.74517930  0.52642922  0.96941577     0.13500
N3862       N  0.71782548  0.98557515  0.94822099    -0.82200
H3863       H  0.73893215  0.90689897  0.97227843     0.18400
N3864       N  0.76431409  0.94685109  0.99345027    -0.80800
H3865       H  0.72087789  0.01148624  0.94910267     0.34000
H3866       H  0.73437291  0.98676345  0.94067639     0.38500
H3867       H  0.76095376  0.92081178  0.99263603     0.34000
H3868       H  0.79172819  0.96449704  0.99467635     0.30700
H3869       H  0.85271990  0.57199867  0.98575723     0.34000
H3870       H  0.83169185  0.52721585  0.98316787     0.30700
H3871       H  0.73354930  0.51673227  0.03064202     0.38500
H3872       H  0.70013711  0.50166423  0.02002216     0.34000
C3873       C  0.56060643  0.79313921  0.96253261    -0.19700
C3874       C  0.53357430  0.80282992  0.96322065     0.36500
C3875       C  0.50915987  0.79003589  0.97350970    -0.25700
C3876       C  0.51215571  0.76887794  0.98321480     0.02900
C3877       C  0.53996465  0.76041144  0.98270047     0.27700
C3878       C  0.56342657  0.77206000  0.97226992    -0.24800
N3879       N  0.53016519  0.82431905  0.95331953    -0.82200
H3880       H  0.48759936  0.79631729  0.97394147     0.13500
C3881       C  0.98524444  0.75443299  0.99367653     0.02900
N3882       N  0.54440739  0.74024870  0.99286014    -0.80800
H3883       H  0.58467125  0.76530279  0.97187729     0.18300
C3884       C  0.96489345  0.71683675  0.99525562    -0.25600
C3885       C  0.93987355  0.70156520  0.00519864     0.36400
C3886       C  0.93513088  0.72456286  0.01384747    -0.19700
C3887       C  0.95544844  0.76230709  0.01217856    -0.24900
C3888       C  0.98075051  0.77747878  0.00224238     0.27800
H3889       H  0.96837724  0.69929428  0.98857761     0.13500
N3890       N  0.91869842  0.66279522  0.00629487    -0.82200
H3891       H  0.95185429  0.78002519  0.01872873     0.18400
N3892       N  0.50233651  0.81614950  0.00086357    -0.80800
H3893       H  0.92626355  0.65001351  0.99939599     0.34000
H3894       H  0.89214618  0.65556486  0.00432912     0.38500
H3895       H  0.49575510  0.82931392  0.00791978     0.34000
H3896       H  0.52903601  0.82312584  0.00239455     0.30700
H3897       H  0.56613710  0.73622452  0.99100397     0.34000
H3898       H  0.05046422  0.75594598  0.00111781     0.30700
H3899       H  0.55228090  0.85038348  0.95392544     0.38500
H3900       H  0.50762080  0.82713199  0.95493358     0.34000
C3901       C  0.95805747  0.92695136  0.11773045    -0.19700
C3902       C  0.92119081  0.91081356  0.11488290     0.36500
C3903       C  0.90568893  0.88087487  0.10666244    -0.25700
C3904       C  0.92631592  0.86703308  0.10126985     0.02900
C3905       C  0.96316530  0.88338586  0.10401064     0.27700
C3906       C  0.97876957  0.91346408  0.11217463    -0.24800
N3907       N  0.89950337  0.92440056  0.12044366    -0.82200
H3908       H  0.87749234  0.86843810  0.10433980     0.13500
C3909       C  0.90930212  0.83603065  0.09242715     0.02900
N3910       N  0.98449196  0.86939118  0.09843813    -0.80800
H3911       H  0.50714245  0.92641139  0.11423265     0.18300
C3912       C  0.91843343  0.84176183  0.07947202    -0.25600
C3913       C  0.90467553  0.81284176  0.07078149     0.36400
C3914       C  0.88083608  0.77734766  0.07518318    -0.19700
C3915       C  0.87144801  0.77193899  0.08821751    -0.24900
C3916       C  0.88536478  0.80093024  0.09687622     0.27800
H3917       H  0.93696344  0.86894489  0.07619048     0.13500
N3918       N  0.91553129  0.81945613  0.05761443    -0.82200
H3919       H  0.85316324  0.74494196  0.09170752     0.18400
N3920       N  0.87631395  0.79470234  0.11021414    -0.80800
H3921       H  0.93223314  0.84714867  0.05594828     0.34000
H3922       H  0.93095111  0.80709732  0.05577698     0.38500
H3923       H  0.85969450  0.76706150  0.11200250     0.34000
H3924       H  0.86131119  0.80720206  0.11251471     0.30700
H3925       H  0.51119132  0.88473395  0.10129317     0.34000
H3926       H  0.97502860  0.84323221  0.10202241     0.30700
H3927       H  0.90879995  0.95072431  0.11720183     0.38500
H3928       H  0.87294217  0.90921048  0.11742673     0.34000
C3929       C  0.96654080  0.53653874  0.11664021    -0.19700
C3930       C  0.97263986  0.57202810  0.11891597     0.36500
C3931       C  0.95781037  0.58701255  0.11060116    -0.25700
C3932       C  0.93831544  0.56783206  0.09986602     0.02900
C3933       C  0.93369575  0.53334486  0.09723104     0.27700
C3934       C  0.94837234  0.51834158  0.10551528    -0.24800
N3935       N  0.99426109  0.59292916  0.12947634    -0.82200
H3936       H  0.96173325  0.61387390  0.11239285     0.13500
C3937       C  0.92268399  0.58399503  0.09138390     0.02900
N3938       N  0.91373931  0.51357483  0.08620916    -0.80800
H3939       H  0.94494288  0.99194562  0.10330837     0.18300
C3940       C  0.93761142  0.59614961  0.07925213    -0.25600
C3941       C  0.92276918  0.61069459  0.07075784     0.36400
C3942       C  0.89198051  0.61248503  0.07448311    -0.19700
C3943       C  0.87732260  0.60037296  0.08671818    -0.24900
C3944       C  0.89229201  0.58600523  0.09518195     0.27800
H3945       H  0.96106699  0.59444735  0.07646490     0.13500
N3946       N  0.93921373  0.62413820  0.05851555    -0.82200
H3947       H  0.85369461  0.60156661  0.08963633     0.18400
N3948       N  0.87659387  0.57305954  0.10756054    -0.80800
H3949       H  0.96133791  0.62039428  0.05726690     0.34000
H3950       H  0.94909096  0.65212049  0.05844753     0.38500
H3951       H  0.85441766  0.57666806  0.10891705     0.34000
H3952       H  0.86698268  0.54513860  0.10780585     0.30700
H3953       H  0.91271931  0.98842207  0.08562791     0.34000
H3954       H  0.88727518  0.50782712  0.08748559     0.30700
H3955       H  0.02021376  0.59737127  0.12806175     0.38500
H3956       H  0.99607336  0.61839649  0.12976147     0.34000
C3957       C  0.56725894  0.52982687  0.11813470    -0.19700
C3958       C  0.57060389  0.55093653  0.10723486     0.36500
C3959       C  0.60000734  0.56188766  0.09901585    -0.25700
C3960       C  0.62719398  0.55389893  0.10171163     0.02900
C3961       C  0.62503276  0.53435770  0.11286963     0.27700
C3962       C  0.59465240  0.52178989  0.12083768    -0.24800
N3963       N  0.54470777  0.56218766  0.10471801    -0.82200
H3964       H  0.60238633  0.57781864  0.09061893     0.13500
C3965       C  0.65858462  0.56840856  0.09301429     0.02900
N3966       N  0.65363482  0.52744815  0.11604294    -0.80800
H3967       H  0.59220834  0.50545845  0.12911291     0.18300
C3968       C  0.69069988  0.59827157  0.09694612    -0.25600
C3969       C  0.71989346  0.61580178  0.08852521     0.36400
C3970       C  0.71737472  0.60228292  0.07595777    -0.19700
C3971       C  0.68493641  0.57233602  0.07203817    -0.24900
C3972       C  0.65547742  0.55538495  0.08043401     0.27800
H3973       H  0.69246466  0.60878896  0.10650541     0.13500
N3974       N  0.75162340  0.64796467  0.09260527    -0.82200
H3975       H  0.68261275  0.56194311  0.06243632     0.18400
N3976       N  0.62228373  0.52519143  0.07623936    -0.80800
H3977       H  0.74917840  0.65403058  0.10209974     0.34000
H3978       H  0.75380316  0.66955474  0.08713178     0.38500
H3979       H  0.62420629  0.51907498  0.06670622     0.34000
H3980       H  0.61787032  0.50260057  0.08161190     0.30700
H3981       H  0.64818481  0.51325565  0.12465679     0.34000
H3982       H  0.65468308  0.51060123  0.10897267     0.30700
H3983       H  0.54702163  0.58002446  0.11199564     0.38500
H3984       H  0.55060734  0.57684355  0.09619761     0.34000
C3985       C  0.85509464  0.61748672  0.16346201    -0.19700
C3986       C  0.88714165  0.63367042  0.15633040     0.36500
C3987       C  0.90307937  0.61284580  0.15271496    -0.25700
C3988       C  0.88837020  0.57646424  0.15647560     0.02900
C3989       C  0.85560101  0.55995416  0.16335279     0.27700
C3990       C  0.83897976  0.58036920  0.16637189    -0.24800
N3991       N  0.90456056  0.67163597  0.15346027    -0.82200
H3992       H  0.92805857  0.62549061  0.14741200     0.13500
C3993       C  0.90849785  0.55715660  0.15330443     0.02900
N3994       N  0.83969208  0.52361816  0.16824979    -0.80800
H3995       H  0.81469965  0.56788820  0.17206628     0.18300
C3996       C  0.94158162  0.56783526  0.15921032    -0.25600
C3997       C  0.96403778  0.55421147  0.15521099     0.36400
C3998       C  0.95236448  0.52788351  0.14534179    -0.19700
C3999       C  0.91783297  0.51519728  0.14025182    -0.24900
C4000       C  0.89652003  0.53051124  0.14371585     0.27800
H4001       H  0.95093025  0.58848653  0.16655372     0.13500
N4002       N  0.49914870  0.56973561  0.16076317    -0.82200
H4003       H  0.90843564  0.99490734  0.13282493     0.18400
N4004       N  0.86410109  0.52104041  0.13686726    -0.80800
H4005       H  0.51270775  0.59744757  0.15869344     0.34000
H4006       H  0.51434967  0.55942409  0.15666294     0.38500
H4007       H  0.86031779  0.00288123  0.12953250     0.34000
H4008       H  0.84254945  0.50733607  0.14311957     0.30700
H4009       H  0.81490688  0.50829230  0.16380390     0.34000
H4010       H  0.85510404  0.51145930  0.16615952     0.30700
H4011       H  0.91347209  0.68554279  0.16209857     0.38500
H4012       H  0.92742093  0.67921688  0.14787901     0.34000
C4013       C  0.85928014  0.73428250  0.16392859    -0.19700
C4014       C  0.84378297  0.75635403  0.16596738     0.36500
C4015       C  0.86252949  0.79317313  0.16253077    -0.25700
C4016       C  0.89515082  0.80812019  0.15573887     0.02900
C4017       C  0.90803638  0.78430893  0.15217063     0.27700
C4018       C  0.89077665  0.74823757  0.15665942    -0.24800
N4019       N  0.80866255  0.74128639  0.17142047    -0.82200
H4020       H  0.85154563  0.81008062  0.16551316     0.13500
C4021       C  0.91544759  0.84823905  0.15263910     0.02900
N4022       N  0.93839163  0.79635042  0.14386947    -0.80800
H4023       H  0.90255838  0.73148574  0.15462595     0.18300
C4024       C  0.95316899  0.86760218  0.15343550    -0.25600
C4025       C  0.97329921  0.90406959  0.14949330     0.36400
C4026       C  0.95565002  0.92329986  0.14608022    -0.19700
C4027       C  0.91815017  0.90534818  0.14662263    -0.24900
C4028       C  0.89788761  0.86777865  0.14903843     0.27800
H4029       H  0.96727839  0.85398907  0.15674648     0.13500
N4030       N  0.51157834  0.92117977  0.14856004    -0.82200
H4031       H  0.90455908  0.92020591  0.14417526     0.18400
N4032       N  0.85977458  0.84931861  0.14715432    -0.80800
H4033       H  0.52057872  0.90353440  0.15147129     0.34000
H4034       H  0.51873771  0.92706092  0.13894907     0.38500
H4035       H  0.85121100  0.86751243  0.14446240     0.34000
H4036       H  0.85402253  0.83141721  0.13952336     0.30700
H4037       H  0.93034451  0.77980166  0.13577669     0.34000
H4038       H  0.95780388  0.79268462  0.14856878     0.30700
H4039       H  0.80973165  0.75761520  0.17904934     0.38500
H4040       H  0.79200366  0.74305882  0.16454694     0.34000
C4041       C  0.56749568  0.53831791  0.14692117    -0.19700
C4042       C  0.58074642  0.52330840  0.15598044     0.36500
C4043       C  0.61691285  0.54331115  0.15991608    -0.25700
C4044       C  0.63983084  0.57845617  0.15529736     0.02900
C4045       C  0.62569925  0.59463917  0.14713420     0.27700
C4046       C  0.58977891  0.57453955  0.14312449    -0.24800
N4047       N  0.55806102  0.98717503  0.16072220    -0.82200
H4048       H  0.62752543  0.53123008  0.16645206     0.13500
C4049       C  0.67870680  0.59749034  0.15877428     0.02900
N4050       N  0.64840715  0.63064033  0.14232932    -0.80800
H4051       H  0.57958476  0.58651490  0.13636890     0.18300
C4052       C  0.70158601  0.58611106  0.15339640    -0.25600
C4053       C  0.73810150  0.60229727  0.15691278     0.36400
C4054       C  0.75220808  0.63093576  0.16584946    -0.19700
C4055       C  0.72963714  0.64361277  0.17059278    -0.24900
C4056       C  0.69292157  0.62634927  0.16756480     0.27800
H4057       H  0.69063227  0.56389193  0.14664667     0.13500
N4058       N  0.76010420  0.58821704  0.15205120    -0.82200
H4059       H  0.74022952  0.66550361  0.17747701     0.18400
N4060       N  0.66970296  0.63701237  0.17379848    -0.80800
H4061       H  0.74498153  0.56553567  0.14632781     0.34000
H4062       H  0.77929503  0.60786241  0.14603409     0.38500
H4063       H  0.68421535  0.65838471  0.18011195     0.34000
H4064       H  0.65150053  0.61511592  0.17935745     0.30700
H4065       H  0.63438441  0.63784957  0.13591756     0.34000
H4066       H  0.65525145  0.64856636  0.14999391     0.30700
H4067       H  0.53780876  0.98766013  0.16613101     0.38500
H4068       H  0.57220399  0.97967891  0.16696626     0.34000
C4069       C  0.95386128  0.55850283  0.68031752    -0.19700
C4070       C  0.91924704  0.53913914  0.67491337     0.36500
C4071       C  0.91121582  0.55233285  0.66388760    -0.25700
C4072       C  0.93723498  0.58401684  0.65791667     0.02900
C4073       C  0.97203585  0.60289829  0.66299652     0.27700
C4074       C  0.97983967  0.59029813  0.67422014    -0.24800
N4075       N  0.89220192  0.00574151  0.68036178    -0.82200
H4076       H  0.88434288  0.53789295  0.66002832     0.13500
C4077       C  0.92687770  0.59876782  0.64698845     0.02900
N4078       N  0.99935637  0.63462060  0.65664421    -0.80800
H4079       H  0.00675554  0.60503678  0.67800448     0.18300
C4080       C  0.93027275  0.63313477  0.64823597    -0.25600
C4081       C  0.91815023  0.64736223  0.63868103     0.36400
C4082       C  0.90178222  0.62646000  0.62767412    -0.19700
C4083       C  0.89981804  0.59266967  0.62615063    -0.24900
C4084       C  0.91219027  0.57852704  0.63575997     0.27800
H4085       H  0.94163879  0.64855750  0.65688485     0.13500
N4086       N  0.92194121  0.68277081  0.64020467    -0.82200
H4087       H  0.88733112  0.57668511  0.61770664     0.18400
N4088       N  0.90937190  0.54355091  0.63429370    -0.80800
H4089       H  0.93410672  0.69425645  0.64890075     0.34000
H4090       H  0.93927203  0.69938707  0.63303564     0.38500
H4091       H  0.89767384  0.53206791  0.62553855     0.34000
H4092       H  0.93538418  0.54741852  0.63407285     0.30700
H4093       H  0.52339574  0.64586009  0.66181113     0.34000
H4094       H  0.00383605  0.62653146  0.64772396     0.30700
H4095       H  0.88416660  0.98545598  0.67344288     0.38500
H4096       H  0.87011490  0.00877677  0.68265247     0.34000
C4097       C  0.93999456  0.89897695  0.68080862    -0.19700
C4098       C  0.91381420  0.89925603  0.67268439     0.36500
C4099       C  0.90286956  0.87716131  0.66180664    -0.25700
C4100       C  0.91783060  0.85536177  0.65876475     0.02900
C4101       C  0.94329397  0.85438985  0.66693737     0.27700
C4102       C  0.95433387  0.87642532  0.67783771    -0.24800
N4103       N  0.89941108  0.92289527  0.67517441    -0.82200
H4104       H  0.88310768  0.87746970  0.65548403     0.13500
C4105       C  0.90548272  0.83250611  0.64722471     0.02900
N4106       N  0.95768586  0.83092984  0.66413554    -0.80800
H4107       H  0.97442522  0.87617911  0.68399542     0.18300
C4108       C  0.92944775  0.83890046  0.63710401    -0.25600
C4109       C  0.91920464  0.81538799  0.62653609     0.36400
C4110       C  0.88441451  0.78508751  0.62624611    -0.19700
C4111       C  0.85997375  0.78025344  0.63602693    -0.24900
C4112       C  0.87015428  0.80355289  0.64652892     0.27800
H4113       H  0.95644924  0.86164378  0.63766051     0.13500
N4114       N  0.94430029  0.82134759  0.61644897    -0.82200
H4115       H  0.83311540  0.75716077  0.63572458     0.18400
N4116       N  0.84515607  0.79722478  0.65670640    -0.80800
H4117       H  0.96853466  0.84508741  0.61809545     0.34000
H4118       H  0.94992203  0.80004068  0.61666146     0.38500
H4119       H  0.82015423  0.77490000  0.65466159     0.34000
H4120       H  0.85456854  0.79052816  0.66487358     0.30700
H4121       H  0.97633187  0.83363351  0.67105418     0.34000
H4122       H  0.93661743  0.80423996  0.66472600     0.30700
H4123       H  0.92017473  0.94951897  0.67390378     0.38500
H4124       H  0.87977235  0.91886053  0.66848927     0.34000
C4125       C  0.60544153  0.55163175  0.68024012    -0.19700
C4126       C  0.62157202  0.53118333  0.67614771     0.36500
C4127       C  0.64439239  0.54268518  0.66545803    -0.25700
C4128       C  0.65175073  0.57417504  0.65877222     0.02900
C4129       C  0.63588366  0.59469188  0.66275718     0.27700
C4130       C  0.61295857  0.58327618  0.67344791    -0.24800
N4131       N  0.61491902  0.49887639  0.68282700    -0.82200
H4132       H  0.65695538  0.52722384  0.66237236     0.13500
C4133       C  0.67844960  0.58670515  0.64826807     0.02900
N4134       N  0.64320988  0.62704262  0.65595394    -0.80800
H4135       H  0.60043911  0.59892138  0.67633845     0.18300
C4136       C  0.66823159  0.58835588  0.63568430    -0.25600
C4137       C  0.69345191  0.60043553  0.62561627     0.36400
C4138       C  0.72969709  0.61138918  0.62829335    -0.19700
C4139       C  0.73928387  0.60867149  0.64092798    -0.24900
C4140       C  0.71428943  0.59697439  0.65090222     0.27800
H4141       H  0.64049142  0.58017009  0.63373920     0.13500
N4142       N  0.68243108  0.60232559  0.61284465    -0.82200
H4143       H  0.76678725  0.61658994  0.64317921     0.18400
N4144       N  0.72530275  0.59621932  0.66379374    -0.80800
H4145       H  0.65533716  0.59498094  0.61267728     0.34000
H4146       H  0.68476686  0.58289968  0.60742331     0.38500
H4147       H  0.75261402  0.60448184  0.66413615     0.34000
H4148       H  0.72184252  0.61523561  0.66903964     0.30700
H4149       H  0.62921128  0.63888727  0.66003135     0.34000
H4150       H  0.67045780  0.64568300  0.65699798     0.30700
H4151       H  0.62609670  0.50663941  0.69192247     0.38500
H4152       H  0.62808298  0.48667391  0.67837811     0.34000
C4153       C  0.78300081  0.56159371  0.56794489    -0.19700
C4154       C  0.76628222  0.56341059  0.55661088     0.36500
C4155       C  0.75220127  0.53392072  0.54820894    -0.25700
C4156       C  0.75405414  0.00261218  0.55100722     0.02900
C4157       C  0.77131243  0.00099206  0.56220299     0.27700
C4158       C  0.78602173  0.53080455  0.57051151    -0.24800
N4159       N  0.76486391  0.59562094  0.55342996    -0.82200
H4160       H  0.73954753  0.53518759  0.53944294     0.13500
C4161       C  0.73716059  0.97155114  0.54219249     0.02900
N4162       N  0.77310005  0.96888110  0.56519409    -0.80800
H4163       H  0.79922347  0.52973053  0.57915991     0.18300
C4164       C  0.75822433  0.95869388  0.53640414    -0.25600
C4165       C  0.74271632  0.92866367  0.52827663     0.36400
C4166       C  0.70573565  0.91137261  0.52593732    -0.19700
C4167       C  0.68513322  0.92553119  0.53104446    -0.24900
C4168       C  0.70027784  0.95505927  0.53940741     0.27800
H4169       H  0.78674648  0.97195347  0.53824548     0.13500
N4170       N  0.76458573  0.91611976  0.52226819    -0.82200
H4171       H  0.65723492  0.91358236  0.52844944     0.18400
N4172       N  0.67836110  0.96802980  0.54522467    -0.80800
H4173       H  0.77840748  0.91084934  0.52938278     0.34000
H4174       H  0.78363024  0.93719628  0.51664445     0.38500
H4175       H  0.65187127  0.95295226  0.54209718     0.34000
H4176       H  0.67780212  0.46353773  0.55504864     0.30700
H4177       H  0.78687417  0.97221008  0.57373965     0.34000
H4178       H  0.74690794  0.94786863  0.56670392     0.30700
H4179       H  0.74671881  0.59730317  0.55966656     0.38500
H4180       H  0.75438809  0.59350594  0.54427291     0.34000
C4181       C  0.59934328  0.80213996  0.52693634    -0.19700
C4182       C  0.59425872  0.81927218  0.53765297     0.36500
C4183       C  0.56379808  0.80052298  0.54526957    -0.25700
C4184       C  0.53796491  0.76503404  0.54234051     0.02900
C4185       C  0.54268285  0.74738850  0.53177179     0.27700
C4186       C  0.57374054  0.76595054  0.52427189    -0.24800
N4187       N  0.61936162  0.85601831  0.54072126    -0.82200
H4188       H  0.55995398  0.81399835  0.55342320     0.13500
C4189       C  0.50585914  0.74744891  0.55043263     0.02900
N4190       N  0.51583959  0.71099414  0.52866366    -0.80800
H4191       H  0.57798649  0.75213794  0.51633793     0.18300
C4192       C  0.97576876  0.75003397  0.54705822    -0.25600
C4193       C  0.94638074  0.73801829  0.55536909     0.36400
C4194       C  0.94731144  0.72277455  0.56722887    -0.19700
C4195       C  0.97696315  0.71896973  0.57042355    -0.24900
C4196       C  0.50653973  0.73157806  0.56212116     0.27800
H4197       H  0.97573035  0.76242557  0.53802532     0.13500
N4198       N  0.91533461  0.74028825  0.55166732    -0.82200
H4199       H  0.97732601  0.70690884  0.57949146     0.18400
N4200       N  0.53758747  0.72913582  0.56566360    -0.80800
H4201       H  0.91822405  0.75005987  0.54233286     0.34000
H4202       H  0.91397630  0.75953246  0.55750921     0.38500
H4203       H  0.53395709  0.71717402  0.57466273     0.34000
H4204       H  0.54009533  0.71179055  0.55917932     0.30700
H4205       H  0.52316144  0.70218323  0.52045729     0.34000
H4206       H  0.51488119  0.69417624  0.53611631     0.30700
H4207       H  0.62890626  0.85666466  0.54993674     0.38500
H4208       H  0.60572044  0.87071306  0.54080374     0.34000
C4209       C  0.70228554  0.80472295  0.52808843    -0.19700
C4210       C  0.69146284  0.76737356  0.52800805     0.36500
C4211       C  0.70825060  0.75451689  0.53622897    -0.25700
C4212       C  0.73433924  0.77757763  0.54493277     0.02900
C4213       C  0.74387372  0.81441485  0.54547034     0.27700
C4214       C  0.72762112  0.82753151  0.53704891    -0.24800
N4215       N  0.66249828  0.74144163  0.52028617    -0.82200
H4216       H  0.70041626  0.72602909  0.53597140     0.13500
C4217       C  0.75076808  0.76232093  0.55355055     0.02900
N4218       N  0.76970032  0.83818742  0.55461723    -0.80800
H4219       H  0.73465642  0.85569761  0.53749373     0.18300
C4220       C  0.78781155  0.77571581  0.55302285    -0.25600
C4221       C  0.80399582  0.76029638  0.56046291     0.36400
C4222       C  0.78254199  0.73103239  0.56873897    -0.19700
C4223       C  0.74542412  0.71782815  0.56922822    -0.24900
C4224       C  0.72940779  0.73343335  0.56183533     0.27800
H4225       H  0.80399562  0.79770521  0.54652719     0.13500
N4226       N  0.84190671  0.77375046  0.55939444    -0.82200
H4227       H  0.72884840  0.69562595  0.57558293     0.18400
N4228       N  0.69154728  0.72032690  0.56277483    -0.80800
H4229       H  0.85369247  0.79570529  0.55309030     0.34000
H4230       H  0.84544869  0.75320697  0.55535943     0.38500
H4231       H  0.67959924  0.69884044  0.56925071     0.34000
H4232       H  0.68814523  0.74129095  0.56650690     0.30700
H4233       H  0.77380313  0.86448878  0.55368941     0.34000
H4234       H  0.75885701  0.82916750  0.56371354     0.30700
H4235       H  0.64968407  0.75307739  0.51534488     0.38500
H4236       H  0.67321624  0.73117968  0.51356307     0.34000
C4237       C  0.70456809  0.91302113  0.49787010    -0.19700
C4238       C  0.73865692  0.92795197  0.49210099     0.36500
C4239       C  0.75701684  0.96499933  0.48851317    -0.25700
C4240       C  0.74263419  0.98795378  0.49105562     0.02900
C4241       C  0.70826621  0.97253529  0.49681869     0.27700
C4242       C  0.68932507  0.93528677  0.49967067    -0.24800
N4243       N  0.75528185  0.90597840  0.49055082    -0.82200
H4244       H  0.78292675  0.97610224  0.48389768     0.13500
C4245       C  0.76270261  0.52746541  0.48732731     0.02900
N4246       N  0.69330170  0.99504660  0.50035987    -0.80800
H4247       H  0.66347809  0.92404821  0.50434455     0.18300
C4248       C  0.74422678  0.54247498  0.48106112    -0.25600
C4249       C  0.76105933  0.57895482  0.47740938     0.36400
C4250       C  0.79862065  0.60126509  0.47900263    -0.19700
C4251       C  0.81726655  0.58691082  0.48557860    -0.24900
C4252       C  0.79959370  0.55053891  0.49000007     0.27800
H4253       H  0.71610660  0.52557645  0.47883826     0.13500
N4254       N  0.73889598  0.59228099  0.47213778    -0.82200
H4255       H  0.84590508  0.60370389  0.48686896     0.18400
N4256       N  0.81904644  0.53700815  0.49711574    -0.80800
H4257       H  0.72794903  0.57844187  0.46361903     0.34000
H4258       H  0.75343668  0.61983847  0.47005684     0.38500
H4259       H  0.84572918  0.55722445  0.49825173     0.34000
H4260       H  0.80780148  0.53043887  0.50626259     0.30700
H4261       H  0.66797351  0.97961868  0.50450424     0.34000
H4262       H  0.70959457  0.51291670  0.50735487     0.30700
H4263       H  0.73984604  0.88535052  0.48409862     0.38500
H4264       H  0.78072161  0.92110383  0.48646155     0.34000
C4265       C  0.91441375  0.71395528  0.47584369    -0.19700
C4266       C  0.94113150  0.74922522  0.47176347     0.36500
C4267       C  0.97639780  0.76427173  0.47609868    -0.25700
C4268       C  0.98641680  0.74658430  0.48502077     0.02900
C4269       C  0.95959742  0.71327469  0.49017578     0.27700
C4270       C  0.92411991  0.69696160  0.48533471    -0.24800
N4271       N  0.93339394  0.77194773  0.46388251    -0.82200
H4272       H  0.49621272  0.79088046  0.47265317     0.13500
C4273       C  0.52438475  0.76584373  0.48961496     0.02900
N4274       N  0.96789039  0.69710578  0.50072244    -0.80800
H4275       H  0.90407483  0.67070090  0.48888836     0.18300
C4276       C  0.53585311  0.79682434  0.49721613    -0.25600
C4277       C  0.57163028  0.81715614  0.50133240     0.36400
C4278       C  0.59657150  0.80562540  0.49825132    -0.19700
C4279       C  0.58567062  0.77592132  0.49001053    -0.24900
C4280       C  0.55006135  0.75637112  0.48543583     0.27800
H4281       H  0.51668994  0.80524282  0.49992718     0.13500
N4282       N  0.58260753  0.84899434  0.50900641    -0.82200
H4283       H  0.60446107  0.76703856  0.48750804     0.18400
N4284       N  0.54035330  0.72792557  0.47622515    -0.80800
H4285       H  0.56113982  0.85360244  0.51061298     0.34000
H4286       H  0.60176740  0.87111369  0.50379772     0.38500
H4287       H  0.56260338  0.72529208  0.47380368     0.34000
H4288       H  0.52181640  0.70345712  0.48041794     0.30700
H4289       H  0.94499789  0.67355056  0.50372318     0.34000
H4290       H  0.98607536  0.68916160  0.49761075     0.30700
H4291       H  0.91286435  0.77464221  0.46819702     0.38500
H4292       H  0.92575253  0.76121880  0.45486389     0.34000
C4293       C  0.80647221  0.71305771  0.48141971    -0.19700
C4294       C  0.82476673  0.75096068  0.48277253     0.36500
C4295       C  0.80653841  0.76897514  0.48690541    -0.25700
C4296       C  0.77014584  0.74986950  0.49034071     0.02900
C4297       C  0.75256949  0.71145987  0.49026191     0.27700
C4298       C  0.77072396  0.69354220  0.48560689    -0.24800
N4299       N  0.86189413  0.77157730  0.47962939    -0.82200
H4300       H  0.82081186  0.79830257  0.48690265     0.13500
C4301       C  0.75077257  0.77041646  0.49348659     0.02900
N4302       N  0.71621726  0.69079913  0.49470544    -0.80800
H4303       H  0.75643635  0.66434415  0.48472776     0.18300
C4304       C  0.71737567  0.76023492  0.48782927    -0.25600
C4305       C  0.69773588  0.77793667  0.49086778     0.36400
C4306       C  0.71195565  0.80704847  0.49956670    -0.19700
C4307       C  0.74682665  0.81946011  0.50419948    -0.24900
C4308       C  0.76573784  0.80087290  0.50168936     0.27800
H4309       H  0.70628213  0.73798945  0.48109946     0.13500
N4310       N  0.66284567  0.76535159  0.48556442    -0.82200
H4311       H  0.75830667  0.84236187  0.51066021     0.18400
N4312       N  0.79934717  0.81196804  0.50793129    -0.80800
H4313       H  0.65535653  0.74237296  0.47993541     0.34000
H4314       H  0.66470835  0.78552134  0.47939567     0.38500
H4315       H  0.80662421  0.83483981  0.51359559     0.34000
H4316       H  0.79571482  0.79110577  0.51411647     0.30700
H4317       H  0.70718625  0.66303785  0.49400000     0.34000
H4318       H  0.71601781  0.69644827  0.50440791     0.30700
H4319       H  0.87566656  0.78537041  0.48785139     0.38500
H4320       H  0.86510838  0.79098490  0.47287236     0.34000
C4321       C  0.93158257  0.96171556  0.86165275    -0.19700
C4322       C  0.92822205  0.97940079  0.87250771     0.36500
C4323       C  0.89932587  0.96065178  0.88086512    -0.25700
C4324       C  0.87371134  0.92442222  0.87859254     0.02900
C4325       C  0.87784038  0.90608739  0.86806406     0.27700
C4326       C  0.90682205  0.92497333  0.85967466    -0.24800
N4327       N  0.95311204  0.01685168  0.87477237    -0.82200
H4328       H  0.89610079  0.97487554  0.88890712     0.13500
C4329       C  0.84106827  0.90743380  0.88661974     0.02900
N4330       N  0.85250340  0.86850805  0.86593908    -0.80800
H4331       H  0.91012171  0.91106613  0.85155250     0.18300
C4332       C  0.80823402  0.89843271  0.88097904    -0.25600
C4333       C  0.77702150  0.88633277  0.88835536     0.36400
C4334       C  0.77848526  0.88197225  0.90173180    -0.19700
C4335       C  0.81156286  0.89048252  0.90728116    -0.24900
C4336       C  0.84285511  0.90334511  0.89987167     0.27800
H4337       H  0.80731239  0.90234265  0.87079500     0.13500
N4338       N  0.74426690  0.87942008  0.88228052    -0.82200
H4339       H  0.81315882  0.88723161  0.91746460     0.18400
N4340       N  0.87650008  0.91250929  0.90573205    -0.80800
H4341       H  0.74768801  0.88271520  0.87239184     0.34000
H4342       H  0.73829853  0.89920777  0.88544652     0.38500
H4343       H  0.87335040  0.90825378  0.91559430     0.34000
H4344       H  0.88466915  0.89474071  0.90216515     0.30700
H4345       H  0.85928308  0.85914147  0.85774823     0.34000
H4346       H  0.85447464  0.85387277  0.87362145     0.30700
H4347       H  0.96490147  0.01902308  0.88366781     0.38500
H4348       H  0.93872879  0.03077571  0.87524154     0.34000
C4349       C  0.53560278  0.96582336  0.85698022    -0.19700
C4350       C  0.57275872  0.98438584  0.85967279     0.36500
C4351       C  0.58680177  0.96803667  0.86762342    -0.25700
C4352       C  0.56468459  0.93406122  0.87316451     0.02900
C4353       C  0.52775173  0.91543992  0.87041795     0.27700
C4354       C  0.51359143  0.93156705  0.86233890    -0.24800
N4355       N  0.59670225  0.52046899  0.85519993    -0.82200
H4356       H  0.61511855  0.98258530  0.86986788     0.13500
C4357       C  0.58042315  0.91931654  0.88233631     0.02900
N4358       N  0.50477790  0.88053615  0.87600764    -0.80800
H4359       H  0.98499304  0.91760739  0.86038149     0.18300
C4360       C  0.56885714  0.91393215  0.89508137    -0.25600
C4361       C  0.58406572  0.90135762  0.90422332     0.36400
C4362       C  0.61121480  0.89349740  0.90043724    -0.19700
C4363       C  0.62265609  0.89904802  0.88762179    -0.24900
C4364       C  0.60763930  0.91191282  0.87856456     0.27800
H4365       H  0.54818168  0.92011554  0.89793428     0.13500
N4366       N  0.57136722  0.89585958  0.91718848    -0.82200
H4367       H  0.64349940  0.89329676  0.88461216     0.18400
N4368       N  0.61973494  0.91728708  0.86552523    -0.80800
H4369       H  0.54956332  0.90027803  0.91807027     0.34000
H4370       H  0.59176348  0.91573845  0.92276145     0.38500
H4371       H  0.64018532  0.91089015  0.86432843     0.34000
H4372       H  0.59832006  0.89904089  0.85991880     0.30700
H4373       H  0.97821668  0.87036971  0.87297999     0.34000
H4374       H  0.51275710  0.86259659  0.87244489     0.30700
H4375       H  0.58356663  0.53035689  0.84952632     0.38500
H4376       H  0.61603414  0.51924674  0.84945939     0.34000
C4377       C  0.60508079  0.72050130  0.90208399    -0.19700
C4378       C  0.58813851  0.68454317  0.90682095     0.36500
C4379       C  0.57378931  0.65552337  0.89816961    -0.25700
C4380       C  0.57706832  0.66162310  0.88498177     0.02900
C4381       C  0.59428341  0.69720902  0.88020629     0.27700
C4382       C  0.60791892  0.72622730  0.88879194    -0.24800
N4383       N  0.58588347  0.67742923  0.92030214    -0.82200
H4384       H  0.56034432  0.62792476  0.90170299     0.13500
C4385       C  0.56213447  0.63039894  0.87625059     0.02900
N4386       N  0.59881405  0.70374327  0.86667570    -0.88600
H4387       H  0.62096139  0.75352941  0.88500482     0.18300
C4388       C  0.53155140  0.62268651  0.86923866    -0.25600
C4389       C  0.51674276  0.59366080  0.86068807     0.36400
C4390       C  0.53238036  0.57145519  0.85926378    -0.19700
C4391       C  0.56263409  0.57886373  0.86648905    -0.24900
C4392       C  0.57808443  0.60851177  0.87484883     0.27800
H4393       H  0.51904102  0.63929462  0.87043659     0.13500
N4394       N  0.98509425  0.58624959  0.85383803    -0.82200
H4395       H  0.57417269  0.56143952  0.86568388     0.18400
N4396       N  0.61024044  0.61692687  0.88168493    -0.80800
H4397       H  0.99079037  0.60962320  0.84873419     0.34000
H4398       H  0.96494836  0.58172746  0.86042578     0.38500
H4399       H  0.61947884  0.59919609  0.87906663     0.34000
H4400       H  0.60376155  0.61238197  0.89137515     0.30700
H4401       H  0.61378528  0.73147640  0.86477704     0.34000
H4402       H  0.57352276  0.69495879  0.86271861     0.30700
H4403       H  0.61192802  0.68635469  0.92355763     0.38500
H4404       H  0.57151134  0.64959062  0.92209745     0.34000
C4405       C  0.74026527  0.87093065  0.78642371    -0.19700
C4406       C  0.75914808  0.85238256  0.78362151     0.36500
C4407       C  0.78956313  0.86873601  0.77578213    -0.25700
C4408       C  0.80081291  0.90285106  0.77033439     0.02900
C4409       C  0.78182280  0.92129917  0.77309949     0.27700
C4410       C  0.75171916  0.90511547  0.78104628    -0.24800
N4411       N  0.74690421  0.81624568  0.78801769    -0.82200
H4412       H  0.80374756  0.85422820  0.77354725     0.13500
C4413       C  0.83142404  0.91813831  0.76133708     0.02900
N4414       N  0.79255798  0.95642967  0.76793698    -0.80800
H4415       H  0.73667687  0.91897786  0.78281243     0.18300
C4416       C  0.82478538  0.91664391  0.74822176    -0.25600
C4417       C  0.85300242  0.93048952  0.73928902     0.36400
C4418       C  0.88892892  0.94711202  0.74363879    -0.19700
C4419       C  0.89519847  0.94817987  0.75688312    -0.24900
C4420       C  0.86682153  0.93360139  0.76573758     0.27800
H4421       H  0.79730973  0.90409803  0.74495043     0.13500
N4422       N  0.84504989  0.92726178  0.72588071    -0.82200
H4423       H  0.92239031  0.96044167  0.76040523     0.18400
N4424       N  0.87371609  0.93419933  0.77917689    -0.80800
H4425       H  0.81753334  0.41581991  0.72435754     0.34000
H4426       H  0.85241642  0.40920874  0.72201166     0.38500
H4427       H  0.90123235  0.94617074  0.78087502     0.34000
H4428       H  0.86507100  0.95062638  0.78359053     0.30700
H4429       H  0.79167014  0.95462848  0.75798680     0.34000
H4430       H  0.81900510  0.97395124  0.77067376     0.30700
H4431       H  0.74528190  0.81597219  0.79794205     0.38500
H4432       H  0.72121347  0.79975705  0.78435239     0.34000
C4433       C  0.63280393  0.86587912  0.78115525    -0.19700
C4434       C  0.59601740  0.85515083  0.78182182     0.36500
C4435       C  0.58163659  0.86931091  0.77301382    -0.25700
C4436       C  0.60302718  0.89310515  0.76338558     0.02900
C4437       C  0.63924630  0.90225297  0.76226169     0.27700
C4438       C  0.65371155  0.88823854  0.77110926    -0.24800
N4439       N  0.57343151  0.82991734  0.79140234    -0.82200
H4440       H  0.55372948  0.86218112  0.77374303     0.13500
C4441       C  0.58747838  0.90954194  0.75493271     0.02900
N4442       N  0.66121021  0.92612974  0.75225790    -0.80800
H4443       H  0.68168488  0.89573575  0.77041314     0.18300
C4444       C  0.60060448  0.94698000  0.75564956    -0.25600
C4445       C  0.58563136  0.96359042  0.74823502     0.36400
C4446       C  0.55739632  0.94229937  0.73983389    -0.19700
C4447       C  0.54447262  0.90491763  0.73900235    -0.24900
C4448       C  0.55899304  0.88817842  0.74661673     0.27800
H4449       H  0.62225673  0.96313906  0.76216466     0.13500
N4450       N  0.59878146  0.50201123  0.74918666    -0.82200
H4451       H  0.52252554  0.88871609  0.73260020     0.18400
N4452       N  0.54484664  0.84965641  0.74603735    -0.80800
H4453       H  0.61942333  0.51368099  0.75588007     0.34000
H4454       H  0.61004435  0.51352939  0.74035761     0.38500
H4455       H  0.52360033  0.83785210  0.73956783     0.34000
H4456       H  0.56502751  0.84508949  0.74248181     0.30700
H4457       H  0.68733391  0.93047106  0.75284848     0.34000
H4458       H  0.65084717  0.91307915  0.74356130     0.30700
H4459       H  0.57247276  0.80521743  0.78966665     0.38500
H4460       H  0.54720137  0.82524454  0.79067808     0.34000
C4461       C  0.63578230  0.76512185  0.78408972    -0.19700
C4462       C  0.64340777  0.73641658  0.78561478     0.36500
C4463       C  0.62744355  0.70672828  0.77733318    -0.25700
C4464       C  0.60420238  0.70511215  0.76769830     0.02900
C4465       C  0.59644270  0.73339368  0.76622034     0.27700
C4466       C  0.61256548  0.76328357  0.77437676    -0.24800
N4467       N  0.66752543  0.73664348  0.79514426    -0.82200
H4468       H  0.63332110  0.68480247  0.77837427     0.13500
C4469       C  0.58848418  0.67390242  0.75900603     0.02900
N4470       N  0.57192893  0.73138183  0.75652499    -0.80800
H4471       H  0.60647337  0.78505318  0.77331542     0.18300
C4472       C  0.55399710  0.64532328  0.76150202    -0.25600
C4473       C  0.53780707  0.61551496  0.75323612     0.36400
C4474       C  0.55659027  0.61472311  0.74224295    -0.19700
C4475       C  0.59097543  0.64369291  0.73970377    -0.24900
C4476       C  0.60729904  0.67322358  0.74808393     0.27800
H4477       H  0.53974780  0.64640544  0.76990200     0.13500
N4478       N  0.50232299  0.58627260  0.75588134    -0.82200
H4479       H  0.60543187  0.64282849  0.73133466     0.18400
N4480       N  0.64303917  0.70227152  0.74568639    -0.80800
H4481       H  0.99279395  0.59098565  0.76444778     0.34000
H4482       H  0.98577545  0.58593131  0.74866335     0.38500
H4483       H  0.65341497  0.69731344  0.73737360     0.34000
H4484       H  0.64155285  0.72578521  0.74402793     0.30700
H4485       H  0.56857911  0.75414141  0.75689021     0.34000
H4486       H  0.58348864  0.73207532  0.74765850     0.30700
H4487       H  0.67919328  0.76049473  0.80042914     0.38500
H4488       H  0.65255811  0.71542249  0.80151018     0.34000
C4489       C  0.63068635  0.87644255  0.80985120    -0.19700
C4490       C  0.64050443  0.91172379  0.80566985     0.36500
C4491       C  0.61966809  0.92750332  0.80903440    -0.25700
C4492       C  0.59065987  0.91059532  0.81756802     0.02900
C4493       C  0.58246980  0.87628089  0.82264624     0.27700
C4494       C  0.60229371  0.85944683  0.81860632    -0.24800
N4495       N  0.67189411  0.93189087  0.79798028    -0.82200
H4496       H  0.62637451  0.95334442  0.80480218     0.13500
C4497       C  0.57015803  0.92980638  0.82116162     0.02900
N4498       N  0.55402898  0.85849395  0.83180711    -0.80800
H4499       H  0.59479203  0.83247910  0.82195697     0.18300
C4500       C  0.53237740  0.91077818  0.82174206    -0.25600
C4501       C  0.51289335  0.92777240  0.82590048     0.36400
C4502       C  0.53118157  0.96517159  0.82864974    -0.19700
C4503       C  0.56830056  0.98484844  0.82679769    -0.24900
C4504       C  0.58813942  0.96751768  0.82380692     0.27800
H4505       H  0.51798660  0.88231105  0.81928418     0.13500
N4506       N  0.97470923  0.90700391  0.82752492    -0.82200
H4507       H  0.58247479  0.51377913  0.82884548     0.18400
N4508       N  0.62662095  0.98789827  0.82415327    -0.80800
H4509       H  0.96528071  0.87991677  0.82506906     0.34000
H4510       H  0.96895857  0.90720955  0.83721142     0.38500
H4511       H  0.63588114  0.51534098  0.82644522     0.34000
H4512       H  0.63500444  0.97770338  0.83165680     0.30700
H4513       H  0.55141037  0.83362163  0.83453499     0.34000
H4514       H  0.56119124  0.87465140  0.83998860     0.30700
H4515       H  0.68921182  0.95546182  0.80295431     0.38500
H4516       H  0.66437901  0.93983940  0.78964022     0.34000
C4517       C  0.73538780  0.87330667  0.81485308    -0.19700
C4518       C  0.75570814  0.91137585  0.81462920     0.36500
C4519       C  0.79152567  0.92902290  0.81871495    -0.25700
C4520       C  0.80753469  0.90935109  0.82334816     0.02900
C4521       C  0.78578180  0.87151428  0.82497854     0.27700
C4522       C  0.75012917  0.85374779  0.82054031    -0.24800
N4523       N  0.74022216  0.93217663  0.80993297    -0.82200
H4524       H  0.80725556  0.95821644  0.81782690     0.13500
C4525       C  0.84670848  0.92903875  0.82654705     0.02900
N4526       N  0.79976571  0.85109362  0.83115243    -0.80800
H4527       H  0.73455919  0.82447374  0.82098215     0.18300
C4528       C  0.86016365  0.95971809  0.83438131    -0.25600
C4529       C  0.89643832  0.97919296  0.83774095     0.36400
C4530       C  0.92046124  0.96727909  0.83352313    -0.19700
C4531       C  0.90753633  0.93790051  0.82503561    -0.24900
C4532       C  0.87106133  0.91896438  0.82137070     0.27800
H4533       H  0.84216451  0.96864166  0.83804417     0.13500
N4534       N  0.90785610  0.01126621  0.84529033    -0.82200
H4535       H  0.92567167  0.92896070  0.82157804     0.18400
N4536       N  0.85870159  0.88962967  0.81239802    -0.80800
H4537       H  0.89526307  0.50351434  0.85413969     0.34000
H4538       H  0.93523535  0.52468568  0.84665771     0.38500
H4539       H  0.87985876  0.88575069  0.80943446     0.34000
H4540       H  0.84975848  0.89710071  0.80430182     0.30700
H4541       H  0.78379181  0.83845984  0.83914849     0.34000
H4542       H  0.79735536  0.83085579  0.82487916     0.30700
H4543       H  0.75658694  0.94897087  0.80262269     0.38500
H4544       H  0.74061065  0.94889860  0.81733147     0.34000
C4545       C  0.61994944  0.76228150  0.81234916    -0.19700
C4546       C  0.63040769  0.75066427  0.82325009     0.36500
C4547       C  0.61043859  0.71412066  0.82718307    -0.25700
C4548       C  0.58170423  0.68796228  0.81980768     0.02900
C4549       C  0.57026789  0.70041252  0.80924295     0.27700
C4550       C  0.58767900  0.73762405  0.80639088    -0.24800
N4551       N  0.66216037  0.77527370  0.82998401    -0.82200
H4552       H  0.61858636  0.70598251  0.83575472     0.13500
C4553       C  0.56446177  0.64812207  0.82309499     0.02900
N4554       N  0.54274809  0.67525544  0.80085763    -0.80800
H4555       H  0.57814249  0.74682308  0.79846480     0.18300
C4556       C  0.52694218  0.62541439  0.82224702    -0.25600
C4557       C  0.51024127  0.58839682  0.82551832     0.36400
C4558       C  0.53064474  0.57398788  0.83069681    -0.19700
C4559       C  0.56802927  0.59583298  0.83109193    -0.24900
C4560       C  0.58508514  0.63218379  0.82703949     0.27800
H4561       H  0.51008373  0.63645793  0.81941204     0.13500
N4562       N  0.47232326  0.56590090  0.82408876    -0.82200
H4563       H  0.58408079  0.58479539  0.83489202     0.18400
N4564       N  0.62342037  0.65264081  0.82691453    -0.80800
H4565       H  0.46626942  0.56576541  0.81443090     0.34000
H4566       H  0.45958877  0.57763331  0.82911995     0.38500
H4567       H  0.63248525  0.65269650  0.83616110     0.34000
H4568       H  0.63285633  0.63934026  0.82097506     0.30700
H4569       H  0.53788168  0.68887508  0.79350231     0.34000
H4570       H  0.55241536  0.65959981  0.79650207     0.30700
H4571       H  0.65507033  0.77633076  0.83946168     0.38500
H4572       H  0.67958605  0.76470011  0.82990085     0.34000
C4573       C  0.86823594  0.73189382  0.19209137    -0.19700
C4574       C  0.90523132  0.74697292  0.19390150     0.36500
C4575       C  0.92280317  0.77506565  0.20275948    -0.25700
C4576       C  0.90376551  0.78839178  0.20971857     0.02900
C4577       C  0.86681422  0.77445487  0.20732608     0.27700
C4578       C  0.84964166  0.74624062  0.19859041    -0.24800
N4579       N  0.92486378  0.73372952  0.18675911    -0.82200
H4580       H  0.95133543  0.78648225  0.20423565     0.13500
C4581       C  0.92343406  0.81861854  0.21866918     0.02900
N4582       N  0.84607567  0.78870067  0.21324835    -0.80800
H4583       H  0.82151014  0.73561524  0.19680198     0.18300
C4584       C  0.94503504  0.85318093  0.21361112    -0.25600
C4585       C  0.96105609  0.88368079  0.22154410     0.36400
C4586       C  0.95444668  0.87948231  0.23488355    -0.19700
C4587       C  0.93476388  0.84429817  0.23998304    -0.24900
C4588       C  0.91918531  0.81374291  0.23198498     0.27800
H4589       H  0.94867326  0.85641145  0.20335972     0.13500
N4590       N  0.98362418  0.91881979  0.21603035    -0.82200
H4591       H  0.93036399  0.84062882  0.25018638     0.18400
N4592       N  0.89897361  0.77793367  0.23729256    -0.80800
H4593       H  0.48497899  0.91710836  0.20611523     0.34000
H4594       H  0.50966791  0.92799961  0.21941110     0.38500
H4595       H  0.89933802  0.77904080  0.24726207     0.34000
H4596       H  0.87225540  0.76735748  0.23459898     0.30700
H4597       H  0.82650455  0.76824652  0.21894432     0.34000
H4598       H  0.86148355  0.81058794  0.21922036     0.30700
H4599       H  0.94479649  0.75539650  0.18156292     0.38500
H4600       H  0.93735721  0.72480889  0.19319617     0.34000
C4601       C  0.93415197  0.54356080  0.23322706    -0.19700
C4602       C  0.92945792  0.53459691  0.22005518     0.36500
C4603       C  0.91733860  0.55240389  0.21184660    -0.25700
C4604       C  0.90923575  0.57844668  0.21647308     0.02900
C4605       C  0.91307811  0.58691709  0.22958060     0.27700
C4606       C  0.92552846  0.56945624  0.23781627    -0.24800
N4607       N  0.93637827  0.50708300  0.21505306    -0.82200
H4608       H  0.91330383  0.54530922  0.20181640     0.13500
C4609       C  0.89362279  0.59421839  0.20769544     0.02900
N4610       N  0.90416155  0.61314390  0.23445933    -0.80800
H4611       H  0.92906635  0.57660730  0.24783856     0.18300
C4612       C  0.85713996  0.58305270  0.20890282    -0.25600
C4613       C  0.84079214  0.59705572  0.20090671     0.36400
C4614       C  0.86162088  0.62358427  0.19176458    -0.19700
C4615       C  0.89812520  0.63454801  0.19043442    -0.24900
C4616       C  0.91428867  0.61966059  0.19820152     0.27800
H4617       H  0.84130690  0.56299366  0.21605376     0.13500
N4618       N  0.80301999  0.58416660  0.20193936    -0.82200
H4619       H  0.91404446  0.65498376  0.18341546     0.18400
N4620       N  0.95165202  0.63094907  0.19672575    -0.80800
H4621       H  0.79161552  0.56483649  0.20919307     0.34000
H4622       H  0.79118551  0.57088407  0.19342011     0.38500
H4623       H  0.96315389  0.65068757  0.18960352     0.34000
H4624       H  0.95348076  0.60863103  0.19347970     0.30700
H4625       H  0.90815096  0.61608486  0.24432205     0.34000
H4626       H  0.92197491  0.63818408  0.23038138     0.30700
H4627       H  0.91747257  0.98235260  0.21914627     0.38500
H4628       H  0.93204400  0.00426955  0.20522488     0.34000
C4629       C  0.60766488  0.55443934  0.23489300    -0.19700
C4630       C  0.60643283  0.56677693  0.22247093     0.36500
C4631       C  0.63598875  0.57779002  0.21430569    -0.25700
C4632       C  0.66661896  0.57709013  0.21839989     0.02900
C4633       C  0.66835282  0.56590824  0.23087830     0.27700
C4634       C  0.63882801  0.55474407  0.23903981    -0.24800
N4635       N  0.57555072  0.56870888  0.21829783    -0.82200
H4636       H  0.63555085  0.58774215  0.20482456     0.13500
C4637       C  0.69837240  0.59232321  0.21008251     0.02900
N4638       N  0.70020969  0.56612607  0.23517649    -0.80800
H4639       H  0.63980242  0.54533740  0.24855781     0.18300
C4640       C  0.72680587  0.62635205  0.21318697    -0.25600
C4641       C  0.75721833  0.64313006  0.20546143     0.36400
C4642       C  0.75945827  0.62566637  0.19432797    -0.19700
C4643       C  0.73159382  0.59041985  0.19163488    -0.24900
C4644       C  0.70068221  0.57376003  0.19930735     0.27800
H4645       H  0.72508316  0.64034670  0.22159141     0.13500
N4646       N  0.78521917  0.67830562  0.20891209    -0.82200
H4647       H  0.73380505  0.57605555  0.18344721     0.18400
N4648       N  0.67209916  0.53801422  0.19636840    -0.80800
H4649       H  0.79470774  0.67650812  0.21790062     0.34000
H4650       H  0.77412153  0.69529155  0.20974115     0.38500
H4651       H  0.67858708  0.52778286  0.18832909     0.34000
H4652       H  0.64968165  0.54020381  0.19390266     0.30700
H4653       H  0.69728840  0.55740090  0.24465164     0.34000
H4654       H  0.70330265  0.54725477  0.22969537     0.30700
H4655       H  0.57349015  0.58778636  0.22402801     0.38500
H4656       H  0.57906515  0.57837758  0.20893261     0.34000
C4657       C  0.61885359  0.90056507  0.35116425    -0.19700
C4658       C  0.58354747  0.89490522  0.35156083     0.36500
C4659       C  0.57098251  0.90671608  0.34123632    -0.25700
C4660       C  0.59287527  0.92339915  0.33057856     0.02900
C4661       C  0.62835425  0.93015365  0.33038459     0.27700
C4662       C  0.64112418  0.91918442  0.34074963    -0.24800
N4663       N  0.56015290  0.87584816  0.36206187    -0.82200
H4664       H  0.54372185  0.90185893  0.34127676     0.13500
C4665       C  0.57837319  0.93290599  0.31941677     0.02900
N4666       N  0.65086017  0.94705555  0.31945535    -0.80800
H4667       H  0.66825528  0.92368228  0.34041802     0.18300
C4668       C  0.58920134  0.96932543  0.31716966    -0.25600
C4669       C  0.57710396  0.97980053  0.30644173     0.36400
C4670       C  0.55434280  0.95314331  0.29758279    -0.19700
C4671       C  0.54361167  0.91656601  0.29989151    -0.24900
C4672       C  0.55563753  0.90621474  0.31070525     0.27800
H4673       H  0.60684139  0.98958241  0.32393238     0.13500
N4674       N  0.58706220  0.51722653  0.30470539    -0.82200
H4675       H  0.52593393  0.89603603  0.29321812     0.18400
N4676       N  0.54511039  0.86882525  0.31286283    -0.80800
H4677       H  0.60444796  0.53323969  0.31191955     0.34000
H4678       H  0.56381181  0.51914722  0.30571173     0.38500
H4679       H  0.52811185  0.85255892  0.30560269     0.34000
H4680       H  0.56817627  0.86644532  0.31232243     0.30700
H4681       H  0.67630873  0.95012461  0.32083651     0.34000
H4682       H  0.63966321  0.92948339  0.31170800     0.30700
H4683       H  0.55526077  0.84916805  0.36182493     0.38500
H4684       H  0.53532227  0.87445465  0.36090339     0.34000
C4685       C  0.53843452  0.60276359  0.29488313    -0.19700
C4686       C  0.51339947  0.60852521  0.30196650     0.36500
C4687       C  0.52552250  0.63415629  0.31193024    -0.25700
C4688       C  0.56174198  0.65317092  0.31533651     0.02900
C4689       C  0.58671687  0.64760289  0.30837155     0.27700
C4690       C  0.57490732  0.62269313  0.29821652    -0.24800
N4691       N  0.47566406  0.58758530  0.29939763    -0.82200
H4692       H  0.50645751  0.63845283  0.31738711     0.13500
C4693       C  0.57331390  0.67838021  0.32639577     0.02900
N4694       N  0.62400652  0.66714406  0.31172932    -0.80800
H4695       H  0.59437997  0.61849934  0.29300016     0.18300
C4696       C  0.58532088  0.66942159  0.33751769    -0.25600
C4697       C  0.59896012  0.69365205  0.34787823     0.36400
C4698       C  0.60150560  0.72808598  0.34694159    -0.19700
C4699       C  0.58781303  0.73616553  0.33597640    -0.24900
C4700       C  0.57370971  0.71167976  0.32573314     0.27800
H4701       H  0.58442569  0.64349824  0.33802853     0.13500
N4702       N  0.61150224  0.68386245  0.35906533    -0.82200
H4703       H  0.58891344  0.76214870  0.33524186     0.18400
N4704       N  0.56065331  0.72085805  0.31452724    -0.80800
H4705       H  0.60961726  0.65852133  0.35788001     0.34000
H4706       H  0.59409358  0.68090432  0.36654890     0.38500
H4707       H  0.56253730  0.74623308  0.31557904     0.34000
H4708       H  0.57745548  0.72312233  0.30691632     0.30700
H4709       H  0.63892725  0.65974001  0.30578523     0.34000
H4710       H  0.63323465  0.69464160  0.31006751     0.30700
H4711       H  0.96720054  0.56088243  0.30203704     0.38500
H4712       H  0.96127949  0.59622569  0.30508057     0.34000
C4713       C  0.89233830  0.93278929  0.29571519    -0.19700
C4714       C  0.89254635  0.90680853  0.30417401     0.36500
C4715       C  0.87036243  0.89614816  0.31500997    -0.25700
C4716       C  0.84865383  0.91130136  0.31775196     0.02900
C4717       C  0.84823881  0.93703077  0.30938684     0.27700
C4718       C  0.87011413  0.94754967  0.29846436    -0.24800
N4719       N  0.91611659  0.89226719  0.30205998    -0.82200
H4720       H  0.87049625  0.87642700  0.32153345     0.13500
C4721       C  0.82537583  0.89891502  0.32918650     0.02900
N4722       N  0.82555314  0.95229522  0.31202589    -0.80800
H4723       H  0.87003209  0.96764667  0.29212532     0.18300
C4724       C  0.83078915  0.92345099  0.33906717    -0.25600
C4725       C  0.80712176  0.91312205  0.34953346     0.36400
C4726       C  0.77716248  0.87794240  0.34983195    -0.19700
C4727       C  0.77296656  0.85298099  0.34027725    -0.24900
C4728       C  0.79698177  0.86300446  0.33000830     0.27800
H4729       H  0.85310733  0.95085680  0.33845625     0.13500
N4730       N  0.81223421  0.93870613  0.35942076    -0.82200
H4731       H  0.75008810  0.82584701  0.34062186     0.18400
N4732       N  0.79203860  0.83723191  0.32020184    -0.80800
H4733       H  0.83481977  0.96377347  0.35748002     0.34000
H4734       H  0.81776535  0.92929932  0.36784899     0.38500
H4735       H  0.77010950  0.81187176  0.32232251     0.34000
H4736       H  0.78589089  0.84597939  0.31174076     0.30700
H4737       H  0.82866431  0.97111349  0.30500103     0.34000
H4738       H  0.79899978  0.93132717  0.31150925     0.30700
H4739       H  0.94235871  0.91338040  0.30331715     0.38500
H4740       H  0.91198101  0.87276442  0.30894995     0.34000
C4741       C  0.72423434  0.95067629  0.40816521    -0.19700
C4742       C  0.76076332  0.97796069  0.40737930     0.36500
C4743       C  0.77407532  0.00782952  0.41573535    -0.25700
C4744       C  0.75213323  0.51084132  0.42504600     0.02900
C4745       C  0.71562555  0.98423528  0.42566848     0.27700
C4746       C  0.70206601  0.95463615  0.41720546    -0.24800
N4747       N  0.78410221  0.97591774  0.39794698    -0.82200
H4748       H  0.80197168  0.02870232  0.41515258     0.13500
C4749       C  0.76782316  0.54197297  0.43408488     0.02900
N4750       N  0.69261491  0.48719166  0.43502168    -0.80800
H4751       H  0.67409160  0.93406234  0.41788242     0.18300
C4752       C  0.75619193  0.56758003  0.43354552    -0.25600
C4753       C  0.77106461  0.59814919  0.44151749     0.36400
C4754       C  0.79788579  0.60330183  0.45033494    -0.19700
C4755       C  0.80950282  0.57774199  0.45090495    -0.24900
C4756       C  0.79478181  0.54711965  0.44298458     0.27800
H4757       H  0.73565359  0.56399915  0.42678752     0.13500
N4758       N  0.75840653  0.62359380  0.44077278    -0.82200
H4759       H  0.83044466  0.58172251  0.45753399     0.18400
N4760       N  0.80736121  0.52163884  0.44451319    -0.80800
H4761       H  0.76256945  0.63374001  0.43147168     0.34000
H4762       H  0.73080988  0.60977715  0.44253963     0.38500
H4763       H  0.83391006  0.53414289  0.44133174     0.34000
H4764       H  0.79285772  0.99839329  0.43903557     0.30700
H4765       H  0.66641695  0.96560741  0.43415790     0.34000
H4766       H  0.70171966  0.48507110  0.44404612     0.30700
H4767       H  0.78939752  0.95544102  0.40076493     0.38500
H4768       H  0.80888507  0.99979642  0.39786474     0.34000
C4769       C  0.55633811  0.77036867  0.40818567    -0.19700
C4770       C  0.55087954  0.78871331  0.41844871     0.36500
C4771       C  0.51979750  0.77048706  0.42593286    -0.25700
C4772       C  0.99446583  0.73417318  0.42346958     0.02900
C4773       C  0.00021285  0.71537699  0.41351208     0.27700
C4774       C  0.53134531  0.73366239  0.40601876    -0.24800
N4775       N  0.57704615  0.82558628  0.42131964    -0.82200
H4776       H  0.51504778  0.78460137  0.43366197     0.13500
C4777       C  0.96108932  0.71746711  0.43100867     0.02900
N4778       N  0.97403340  0.67833654  0.41089103    -0.80800
H4779       H  0.53560529  0.71943867  0.39821407     0.18300
C4780       C  0.93289021  0.72255766  0.42703209    -0.25600
C4781       C  0.90320339  0.71309706  0.43494733     0.36400
C4782       C  0.90124013  0.69741415  0.44707536    -0.19700
C4783       C  0.92804121  0.68890813  0.45032820    -0.24900
C4784       C  0.95861735  0.70008878  0.44266923     0.27800
H4785       H  0.93486444  0.73585274  0.41799832     0.13500
N4786       N  0.87641006  0.72140792  0.43077851    -0.82200
H4787       H  0.92587113  0.67465609  0.45912537     0.18400
N4788       N  0.98787974  0.69550291  0.44696166    -0.80800
H4789       H  0.86537318  0.70714770  0.42232691     0.34000
H4790       H  0.88896918  0.74903282  0.42862446     0.38500
H4791       H  0.98235170  0.68342079  0.45598574     0.34000
H4792       H  0.49028149  0.67772311  0.44078269     0.30700
H4793       H  0.98206862  0.66862259  0.40310540     0.34000
H4794       H  0.97303252  0.66274708  0.41875431     0.30700
H4795       H  0.60049800  0.82581598  0.42411320     0.38500
H4796       H  0.56878618  0.83509001  0.42911360     0.34000
C4797       C  0.72033879  0.77830126  0.40973482    -0.19700
C4798       C  0.71364657  0.74220487  0.40927185     0.36500
C4799       C  0.72637430  0.72918065  0.41913366    -0.25700
C4800       C  0.74540586  0.75135842  0.42944617     0.02900
C4801       C  0.75150996  0.78711203  0.43005713     0.27700
C4802       C  0.73923510  0.80032204  0.42014275    -0.24800
N4803       N  0.69479674  0.71921081  0.39867255    -0.82200
H4804       H  0.72235899  0.70192543  0.41861640     0.13500
C4805       C  0.76256710  0.73828514  0.43865277     0.02900
N4806       N  0.77035062  0.80984046  0.44072398    -0.80800
H4807       H  0.74392033  0.82781666  0.42066186     0.18300
C4808       C  0.80004976  0.75689043  0.43911762    -0.25600
C4809       C  0.81863845  0.74442291  0.44653364     0.36400
C4810       C  0.79932402  0.71149131  0.45329349    -0.19700
C4811       C  0.76177160  0.69356813  0.45330453    -0.24900
C4812       C  0.74306278  0.70668594  0.44615823     0.27800
H4813       H  0.81518358  0.78121251  0.43345720     0.13500
N4814       N  0.85698275  0.76576395  0.44683342    -0.82200
H4815       H  0.74683935  0.66886011  0.45877063     0.18400
N4816       N  0.70461290  0.68760105  0.44691539    -0.80800
H4817       H  0.86370183  0.79148845  0.45040437     0.34000
H4818       H  0.86771086  0.75490351  0.45306107     0.38500
H4819       H  0.69537791  0.66230298  0.44261962     0.34000
H4820       H  0.69354913  0.70099099  0.44195957     0.30700
H4821       H  0.77277041  0.83546647  0.43971487     0.34000
H4822       H  0.75480564  0.79819881  0.44888657     0.30700
H4823       H  0.71068066  0.73029860  0.39053174     0.38500
H4824       H  0.69184959  0.69344217  0.39988442     0.34000
loop_ 
_geom_bond_atom_site_label_1 
_geom_bond_atom_site_label_2 
_geom_bond_distance 
_geom_bond_site_symmetry_2 
_ccdc_geom_bond_type 
Zn1           O5   1.918       .  S
Zn1           O6   1.981       .  S
Zn1          O10   1.964       .  S
Zn1          O17   1.997       .  S
Zn2           O5   1.961       .  S
Zn2           O7   2.032       .  S
Zn2           O9   2.039       .  S
Zn2          O13   2.020       .  S
Zn3           O5   1.963       .  S
Zn3           O8   2.061       .  S
Zn3          O11   2.043       .  S
Zn3          O14   2.026       .  S
Zn4           O5   1.964       .  S
Zn4          O12   2.007       .  S
Zn4          O15   2.026       .  S
Zn4          O16   2.053       .  S
O6           C18   1.270       .  A
O7           C19   1.275       .  A
O8           C20   1.277       .  A
O9           C18   1.275       .  A
O10          C20   1.269       .  A
O11          C19   1.277       .  A
O12          C21   1.273       .  A
O13          C22   1.276       .  A
O14          C21   1.277       .  A
O15          C22   1.276       .  A
O16          C23   1.276       .  A
O17          C23   1.270       .  A
C18        C1108   1.472       .  S
C19        C1123   1.495       .  S
C20        C1039   1.480       .  S
C21        C1151   1.480       .  S
C22        C1179   1.483       .  S
C23        C1080   1.494       .  S
Zn24       O1234   1.956   1_545  S
Zn24         O29   2.045       .  S
Zn24       O2445   2.025       .  S
Zn24       O1246   2.013   1_545  S
Zn25         O28   1.936       .  S
Zn25         O36   1.997       .  S
Zn25       O3648   1.985       .  S
Zn25       O1238   1.994       .  S
Zn26       O3646   1.953   1_445  S
Zn26         O31   2.021       .  S
Zn26         O34   2.020       .  S
Zn26       O1243   1.996   1_545  S
Zn27         O28   1.965       .  S
Zn27         O38   2.030       .  S
Zn27         O39   1.997       .  S
Zn27       O2447   2.007       .  S
O28       Zn1230   1.956       .  S
O28       Zn3644   1.953       .  S
O29          C41   1.278       .  A
O30       Zn3643   1.986   1_445  S
O30          C42   1.270       .  A
O31          C43   1.274       .  A
O32       Zn1231   1.995   1_545  S
O32          C41   1.271       .  A
O33       Zn2436   2.025       .  S
O33          C43   1.273   1_655  A
O34          C42   1.275       .  A
O35       Zn2439   2.007   1_455  S
O35          C44   1.272       .  A
O36          C45   1.271       .  A
O37       Zn1232   1.996       .  S
O37          C44   1.271       .  A
O38          C45   1.275       .  A
O39          C46   1.272       .  A
O40       Zn1230   2.013       .  S
O40          C46   1.275       .  A
C41         C983   1.490       .  S
C42        C1011   1.474       .  S
C43        C1067   1.498       .  S
C44        C1052   1.480       .  S
C45         C968   1.488       .  S
C46        C1095   1.483       .  S
C47          H48   1.110       .  S
C47          C53   1.561       .  S
C47          C52   1.559       .  S
C47          C51   1.556       .  S
C49          H50   1.112       .  S
C49          C55   1.517       .  S
C49          C54   1.527       .  S
C49          C56   1.518       .  S
C51          C54   1.379       .  D
C51         C871   1.503       .  S
C52          C55   1.372       .  D
C52         C899   1.492       .  S
C53          C56   1.379       .  D
C53         C927   1.506       .  S
C54         C815   1.487       .  S
C55         C787   1.480       .  S
C56         C843   1.481       .  S
C57          H58   1.110       .  S
C57        C3681   1.560   1_545  S
C57        C1268   1.560   1_545  S
C57        C2473   1.556       .  S
C59          H60   1.112       .  S
C59        C1271   1.525   1_545  S
C59        C2476   1.527       .  S
C59        C3684   1.520   1_545  S
C61        C2469   1.556   1_455  S
C61          C64   1.373       .  D
C61         C940   1.493       .  S
C62        C1263   1.560       .  S
C62          C65   1.378       .  D
C62         C912   1.506       .  S
C63        C3675   1.560   1_455  S
C63          C66   1.371       .  D
C63         C884   1.495       .  S
C64        C2471   1.527       .  S
C64         C772   1.484       .  S
C65        C1265   1.525       .  S
C65         C703   1.483       .  S
C66        C3677   1.520       .  S
C66         C731   1.481       .  S
C67          H68   1.109       .  S
C67          C73   1.568       .  S
C67          C72   1.555       .  S
C67          C71   1.567       .  S
C69          H70   1.111       .  S
C69          C75   1.525       .  S
C69          C74   1.515       .  S
C69          C76   1.522       .  S
C71          C74   1.379       .  D
C71         C688   1.507       .  S
C72          C75   1.367       .  D
C72         C619   1.500       .  S
C73          C76   1.379       .  D
C73         C660   1.507       .  S
C74         C591   1.484       .  S
C75         C548   1.472       .  S
C76         C563   1.491       .  S
C77          H78   1.110       .  S
C77          C83   1.569       .  S
C77          C82   1.571       .  S
C77          C81   1.550       .  S
C79          H80   1.105       .  S
C79          C85   1.533       .  S
C79          C84   1.538       .  S
C79          C86   1.518       .  S
C81          C84   1.369       .  D
C81         C675   1.502       .  S
C82          C85   1.387       .  D
C82         C647   1.520       .  S
C83          C86   1.376       .  D
C83         C632   1.503       .  S
C84        C1192   1.481       .  S
C85        C1164   1.504       .  S
C86        C1136   1.494       .  S
Zn87         O91   1.906       .  S
Zn87         O92   1.964       .  S
Zn87         O96   1.959       .  S
Zn87        O103   1.967       .  S
Zn88         O91   1.960       .  S
Zn88         O93   2.022       .  S
Zn88         O95   2.056       .  S
Zn88         O99   2.007       .  S
Zn89         O91   1.963       .  S
Zn89         O94   2.052       .  S
Zn89         O97   2.004       .  S
Zn89        O100   2.011       .  S
Zn90         O91   1.962       .  S
Zn90         O98   2.002       .  S
Zn90        O101   2.005       .  S
Zn90        O102   2.033       .  S
O92         C104   1.268       .  A
O93         C105   1.276       .  A
O94         C106   1.275       .  A
O95         C104   1.276       .  A
O96         C106   1.267       .  A
O97         C105   1.272       .  A
O98         C107   1.272       .  A
O99         C108   1.273       .  A
O100        C107   1.273       .  A
O101        C108   1.273       .  A
O102        C109   1.273       .  A
O103        C109   1.267       .  A
C104        C520   1.491       .  S
C105        C604   1.484       .  S
C106        C492   1.474       .  S
C107        C576   1.468       .  S
C108        C535   1.470       .  S
C109        C464   1.475       .  S
Zn110      O3732   1.955       .  S
Zn110       O119   2.027       .  S
Zn110       O126   1.995       .  S
Zn110      O1321   2.003       .  S
Zn111       O114   1.956       .  S
Zn111       O116   2.024       .  S
Zn111       O122   2.020       .  S
Zn111      O2530   1.997   1_455  S
Zn112       O114   1.941       .  S
Zn112       O120   1.995       .  S
Zn112      O3735   2.017   1_445  S
Zn112      O1329   2.007   1_545  S
Zn113      O1320   1.951       .  S
Zn113       O121   2.018       .  S
Zn113      O1330   2.015       .  S
Zn113      O2537   1.997   1_455  S
O114      Zn3728   1.955   1_445  S
O114      Zn1319   1.951   1_545  S
O115      Zn1316   2.003   1_545  S
O115        C127   1.271       .  A
O116        C128   1.276       .  A
O117      Zn3730   2.016       .  S
O117        C129   1.274       .  A
O118      Zn2523   1.997       .  S
O118        C127   1.272       .  A
O119        C129   1.274       .  A
O120        C128   1.272       .  A
O121        C130   1.274       .  A
O122        C131   1.273       .  A
O123      Zn1318   2.007       .  S
O123        C130   1.273       .  A
O124      Zn1319   2.015   1_545  S
O124        C131   1.272       .  A
O125      Zn2525   1.997       .  S
O125        C132   1.271       .  A
O126        C132   1.271       .  A
C127        C451   1.486       .  S
C128        C856   1.473       .  S
C129        C800   1.495       .  S
C130        C828   1.469       .  S
C131        C507   1.492       .  S
C132        C479   1.479       .  S
C133        H134   1.110       .  S
C133        C139   1.526       .  S
C133        C138   1.531       .  S
C133        C137   1.517       .  S
C135        H136   1.109       .  S
C135        C141   1.559       .  S
C135        C140   1.564       .  S
C135        C142   1.554       .  S
C137        C140   1.372       .  D
C137        C996   1.488       .  S
C138        C141   1.382       .  D
C138       C1024   1.492       .  S
C139        C142   1.370       .  D
C139        C955   1.475       .  S
C140        C367   1.494       .  S
C141        C436   1.507       .  S
C142        C395   1.498       .  S
C143        H144   1.110       .  S
C143        C147   1.529   1_565  S
C143       C2561   1.525   1_565  S
C143       C1354   1.522       .  S
C145        H146   1.109       .  S
C145        C150   1.561   1_565  S
C145       C1357   1.554       .  S
C145       C2564   1.569   1_565  S
C147        C150   1.382       .  D
C147        C311   1.495       .  S
C148       C1349   1.522       .  S
C148        C151   1.367       .  D
C148        C283   1.477       .  S
C149       C2555   1.525   1_445  S
C149        C152   1.381       .  D
C149        C339   1.498       .  S
C150        C380   1.505       .  S
C151       C1351   1.554       .  S
C151        C408   1.497       .  S
C152       C2557   1.569   1_445  S
C152        C423   1.508       .  S
Zn153       O157   1.968       .  S
Zn153       O158   2.026       .  S
Zn153       O162   2.014       .  S
Zn153       O169   2.022       .  S
Zn154       O157   1.935       .  S
Zn154       O159   2.006       .  S
Zn154       O161   2.007       .  S
Zn154       O165   1.988       .  S
Zn155       O157   1.952       .  S
Zn155       O160   1.990       .  S
Zn155       O163   2.023       .  S
Zn155       O166   2.016       .  S
Zn156       O157   1.949       .  S
Zn156       O164   2.008       .  S
Zn156       O167   2.011       .  S
Zn156       O168   1.993       .  S
O158        C170   1.274       .  A
O159        C171   1.272       .  A
O160        C172   1.272       .  A
O161        C170   1.273       .  A
O162        C172   1.274       .  A
O163        C171   1.275       .  A
O164        C173   1.271       .  A
O165        C174   1.272       .  A
O166        C173   1.272       .  A
O167        C174   1.273       .  A
O168        C175   1.272       .  A
O169        C175   1.272       .  A
C170        C744   1.488       .  S
C171        C716   1.492       .  S
C172        C240   1.467       .  S
C173        C199   1.480       .  S
C174        C759   1.484       .  S
C175        C255   1.475       .  S
Zn176       O180   1.937       .  S
Zn176       O181   2.001       .  S
Zn176       O185   1.999       .  S
Zn176       O192   1.997       .  S
Zn177       O180   1.962       .  S
Zn177       O182   2.004       .  S
Zn177       O184   2.046       .  S
Zn177       O188   2.014       .  S
Zn178       O180   1.965       .  S
Zn178       O183   2.022       .  S
Zn178       O186   2.016       .  S
Zn178       O189   2.027       .  S
Zn179       O180   1.953       .  S
Zn179       O187   1.998       .  S
Zn179       O190   1.993       .  S
Zn179       O191   2.021       .  S
O181        C193   1.271       .  A
O182        C194   1.273       .  A
O183        C195   1.275       .  A
O184        C193   1.277       .  A
O185        C195   1.272       .  A
O186        C194   1.274       .  A
O187        C196   1.271       .  A
O188        C197   1.273       .  A
O189        C196   1.274       .  A
O190        C197   1.271       .  A
O191        C198   1.274       .  A
O192        C198   1.272       .  A
C193        C352   1.491       .  S
C194        C212   1.479       .  S
C195        C296   1.486       .  S
C196        C268   1.484       .  S
C197        C227   1.475       .  S
C198        C324   1.482       .  S
C199        C200   1.416       .  A
C199        C204   1.405       .  A
C200        C201   1.404       .  A
C200        N205   1.438       .  S
C201        C202   1.398       .  A
C201        H206   1.084       .  S
C202        C207   1.475       .  S
C202        C203   1.409       .  A
C203        C204   1.406       .  A
C203        N208   1.438       .  S
C204        H209   1.084       .  S
N205        H225   1.045       .  S
N205        H226   1.046       .  S
C207        C210   1.397       .  A
C207        C214   1.409   1_556  A
N208        H223   1.045       .  S
N208        H224   1.045       .  S
C210        C211   1.402   1_556  A
C210        H215   1.084       .  S
C211        C212   1.416       .  A
C211        N216   1.439       .  S
C212        C213   1.405       .  A
C213        C214   1.406       .  A
C213        H217   1.084       .  S
C214        N218   1.438       .  S
N216        H219   1.046   1_554  S
N216        H220   1.046       .  S
N218        H221   1.046       .  S
N218        H222   1.044   1_554  S
C227        C228   1.411       .  A
C227        C232   1.407       .  A
C228        C229   1.403       .  A
C228        N233   1.437       .  S
C229        C230   1.400   1_554  A
C229       H1440   1.084   1_545  S
C230       C1441   1.468   1_545  S
C230        C231   1.405       .  A
C231        C232   1.402   1_556  A
C231        N236   1.438       .  S
C232        H237   1.084       .  S
N233        H253   1.045       .  S
N233        H254   1.046       .  S
H234       C1435   1.084       .  S
C235       C1436   1.468       .  S
C235        C238   1.402       .  A
C235        C242   1.405       .  A
N236        H251   1.046       .  S
N236        H252   1.045       .  S
C238        C239   1.405       .  A
C238       H1449   1.084       .  S
C239        C240   1.409       .  A
C239        N244   1.437       .  S
C240        C241   1.403       .  A
C241        C242   1.399       .  A
C241        H245   1.084       .  S
C242        N246   1.438       .  S
H243       C1444   1.084       .  S
N244        H247   1.046       .  S
N244        H248   1.045       .  S
N246        H249   1.045       .  S
N246        H250   1.046       .  S
C255        C256   1.412       .  A
C255        C260   1.403       .  A
C256        C257   1.410       .  A
C256        N261   1.437       .  S
C257        C258   1.406       .  A
C257        H262   1.084   1_455  S
C258       C2675   1.481   1_455  S
C258        C259   1.408       .  A
C259        C260   1.398       .  A
C259        N264   1.438       .  S
C260        H265   1.084       .  S
N261        H281   1.045       .  S
N261        H282   1.046       .  S
C263       C2670   1.481       .  S
C263        C266   1.400       .  A
C263        C270   1.409   1_556  A
N264        H279   1.046       .  S
N264       H2692   1.046   1_556  S
C266        C267   1.402   1_556  A
C266        H271   1.084       .  S
C267        C268   1.418       .  A
C267        N272   1.439       .  S
C268        C269   1.406       .  A
C269        C270   1.407       .  A
C269        H273   1.083       .  S
C270       N2686   1.437       .  S
N272        H275   1.046   1_554  S
N272        H276   1.045       .  S
N274       C2682   1.437   1_455  S
N274        H277   1.045   1_455  S
N274        H278   1.046       .  S
H280       N2676   1.046   1_554  S
C283        C284   1.413       .  A
C283        C288   1.399       .  A
C284        C285   1.402       .  A
C284        N289   1.437       .  S
C285        C286   1.400       .  A
C285        H290   1.084       .  S
C286        C291   1.476       .  S
C286        C287   1.409       .  A
C287        C288   1.403       .  A
C287        N292   1.437       .  S
C288       H2705   1.084       .  S
N289        H309   1.041       .  S
N289        H310   1.045       .  S
C291        C294   1.400       .  A
C291        C298   1.407       .  A
N292        H308   1.046       .  S
N292       H2719   1.045       .  S
H293       C2700   1.084   1_455  S
C294        C295   1.404       .  A
C294        H299   1.084       .  S
C295        C296   1.416       .  A
C295        N300   1.438       .  S
C296        C297   1.409       .  A
C297        C298   1.404       .  A
C297        H301   1.083       .  S
C298        N302   1.439       .  S
N300        H303   1.046       .  S
N300        H304   1.046       .  S
N302        H305   1.046       .  S
N302        H306   1.045       .  S
H307       N2704   1.045   1_455  S
C311        C312   1.416       .  A
C311        C316   1.405       .  A
C312        C313   1.406       .  A
C312        N317   1.437       .  S
C313        C314   1.401       .  A
C313        H318   1.084       .  S
C314        C319   1.474       .  S
C314        C315   1.404       .  A
C315        C316   1.400       .  A
C315        N320   1.438       .  S
C316       H1527   1.080   1_545  S
N317        H337   1.044       .  S
N317        H338   1.046       .  S
C319        C322   1.401       .  A
C319        C326   1.405       .  A
N320        H336   1.046       .  S
N320       H1541   1.045   1_545  S
H321       C1522   1.080       .  S
C322        C323   1.405       .  A
C322        H327   1.084       .  S
C323        C324   1.415       .  A
C323        N328   1.438       .  S
C324        C325   1.407       .  A
C325        C326   1.402       .  A
C325        H329   1.084       .  S
C326        N330   1.438       .  S
N328        H331   1.046       .  S
N328        H332   1.046       .  S
N330        H333   1.046       .  S
N330        H334   1.045       .  S
H335       N1526   1.045       .  S
C339        C340   1.415       .  A
C339        C344   1.407       .  A
C340        C341   1.402       .  A
C340        N345   1.436       .  S
C341        C342   1.397       .  A
C341        H346   1.084       .  S
C342        C347   1.483       .  S
C342        C343   1.411       .  A
C343        C344   1.410       .  A
C343        N348   1.437       .  S
C344        H349   1.083       .  S
N345        H365   1.044       .  S
N345        H366   1.045       .  S
C347        C350   1.398       .  A
C347        C354   1.410       .  A
N348        H363   1.046       .  S
N348        H364   1.046       .  S
C350        C351   1.406       .  A
C350        H355   1.084       .  S
C351        C352   1.419       .  A
C351        N356   1.438       .  S
C352        C353   1.407       .  A
C353        C354   1.409       .  A
C353        H357   1.083       .  S
C354        N358   1.438       .  S
N356        H359   1.045       .  S
N356        H360   1.046       .  S
N358        H361   1.045       .  S
N358        H362   1.046       .  S
C367        C368   1.408       .  A
C367        C372   1.406       .  A
C368        C369   1.410       .  A
C368        N373   1.434       .  S
C369        C370   1.406       .  A
C369        H374   1.084       .  S
C370        C375   1.492       .  S
C370        C371   1.418       .  A
C371        C372   1.404       .  A
C371        N376   1.438       .  S
C372        H377   1.084       .  S
N373        H393   1.045       .  S
N373        H394   1.046       .  S
C375        C378   1.406       .  A
C375        C382   1.407       .  A
N376        H391   1.045       .  S
N376        H392   1.044       .  S
C378        C379   1.410       .  A
C378        H383   1.084       .  S
C379        C380   1.421       .  A
C379       N2796   1.438       .  S
C380        C381   1.411       .  A
C381        C382   1.406       .  A
C381       H1591   1.083   1_545  S
C382        N386   1.438       .  S
N384       C2791   1.438       .  S
N384        H387   1.046   1_655  S
N384        H388   1.040   1_655  S
H385       C1587   1.083       .  S
N386        H390   1.043       .  S
N386       H1595   1.046       .  S
H389       N1592   1.046       .  S
C395        C396   1.408       .  A
C395        C400   1.401       .  A
C396        C397   1.406       .  A
C396        N401   1.432       .  S
C397        C398   1.409       .  A
C397        H402   1.081       .  S
C398        C403   1.516       .  S
C398        C399   1.421       .  A
C399        C400   1.412       .  A
C399        N404   1.432       .  S
C400        H405   1.078       .  S
N401        H421   1.044       .  S
N401        H422   1.046       .  S
C403        C406   1.411       .  A
C403        C410   1.422       .  A
N404        H419   1.046       .  S
N404        H420   1.046       .  S
C406        C407   1.411       .  A
C406        H411   1.082       .  S
C407        C408   1.408       .  A
C407       N2824   1.436       .  S
C408        C409   1.401       .  A
C409        C410   1.412       .  A
C409        H413   1.082       .  S
C410        N414   1.438       .  S
N412       C2819   1.435   1_455  S
N412        H415   1.045       .  S
N412        H416   1.046       .  S
N414        H417   1.046       .  S
N414        H418   1.045       .  S
C423        C424   1.413       .  A
C423        C428   1.408       .  A
C424        C425   1.416       .  A
C424       N1635   1.433   1_545  S
C425        C426   1.406       .  A
C425        H430   1.084       .  S
C426        C431   1.498       .  S
C426        C427   1.411       .  A
C427        C428   1.410       .  A
C427        N432   1.437       .  S
C428        H433   1.084       .  S
N429       C1630   1.433       .  S
N429        H449   1.045       .  S
N429        H450   1.046       .  S
C431        C434   1.407       .  A
C431        C438   1.409       .  A
N432        H447   1.046       .  S
N432        H448   1.044       .  S
C434        C435   1.416       .  A
C434        H439   1.084       .  S
C435        C436   1.413       .  A
C435        N440   1.437       .  S
C436        C437   1.410       .  A
C437        C438   1.409       .  A
C437        H441   1.084       .  S
C438        N442   1.437       .  S
N440        H443   1.045       .  S
N440        H444   1.044       .  S
N442        H445   1.045       .  S
N442        H446   1.046       .  S
C451        C452   1.416       .  A
C451        C456   1.408       .  A
C452        C453   1.401       .  A
C452       N1663   1.432       .  S
C453        C454   1.400       .  A
C453        H458   1.084       .  S
C454        C459   1.478       .  S
C454        C455   1.407       .  A
C455        C456   1.401       .  A
C455        N460   1.438       .  S
C456        H461   1.083       .  S
N457       C1658   1.432       .  S
N457        H477   1.046       .  S
N457        H478   1.045       .  S
C459        C462   1.399       .  A
C459        C466   1.410       .  A
N460        H476   1.045       .  S
N460       H2887   1.046       .  S
C462        C463   1.398       .  A
C462        H467   1.084       .  S
C463        C464   1.414       .  A
C463        N468   1.439       .  S
C464        C465   1.404       .  A
C465        C466   1.407       .  A
C465        H469   1.084       .  S
C466        N470   1.437       .  S
N468        H471   1.045       .  S
N468        H472   1.046       .  S
N470        H473   1.045       .  S
N470        H474   1.046       .  S
H475       N2872   1.046   1_455  S
C479        C480   1.418       .  A
C479        C484   1.405       .  A
C480        C481   1.402       .  A
C480        N485   1.439       .  S
C481        C482   1.399       .  A
C481        H486   1.084       .  S
C482        C487   1.476       .  S
C482        C483   1.408       .  A
C483        C484   1.403       .  A
C483        N488   1.438       .  S
C484        H489   1.084       .  S
N485        H505   1.046       .  S
N485        H506   1.045       .  S
C487        C490   1.405       .  A
C487        C494   1.406       .  A
N488        H503   1.046       .  S
N488        H504   1.046       .  S
C490        C491   1.409       .  A
C490        H495   1.084       .  S
C491        C492   1.410       .  A
C491        N496   1.437       .  S
C492        C493   1.405       .  A
C493        C494   1.398       .  A
C493        H497   1.084       .  S
C494        N498   1.438       .  S
N496        H499   1.046       .  S
N496        H500   1.046       .  S
N498        H501   1.045       .  S
N498        H502   1.046       .  S
C507        C508   1.417       .  A
C507        C512   1.410       .  A
C508        C509   1.405       .  A
C508        N513   1.438   1_545  S
C509        C510   1.400       .  A
C509        H514   1.084       .  S
C510        C515   1.482       .  S
C510        C511   1.407       .  A
C511        C512   1.407       .  A
C511        N516   1.438       .  S
C512        H517   1.083       .  S
N513        H533   1.046   1_565  S
N513        H534   1.045       .  S
C515        C518   1.404       .  A
C515        C522   1.405       .  A
N516        H531   1.046       .  S
N516        H532   1.046       .  S
C518        C519   1.412       .  A
C518        H523   1.084       .  S
C519        C520   1.416       .  A
C519        N524   1.437       .  S
C520        C521   1.410       .  A
C521        C522   1.399       .  A
C521        H525   1.083       .  S
C522        N526   1.439       .  S
N524        H527   1.045       .  S
N524        H528   1.046       .  S
N526        H529   1.046       .  S
N526        H530   1.046       .  S
C535        C536   1.412       .  A
C535        C540   1.403       .  A
C536        C537   1.401       .  A
C536        N541   1.438       .  S
C537       C1744   1.400       .  A
C537        H542   1.084       .  S
C538        C543   1.475       .  S
C538        C539   1.410       .  A
C538       C1743   1.400       .  A
C539       C1746   1.403       .  A
C539        N544   1.438       .  S
C540       C1745   1.403       .  A
C540        H545   1.084       .  S
N541        H561   1.044       .  S
N541        H562   1.046       .  S
C543        C546   1.403       .  A
C543        C550   1.411       .  A
N544        H559   1.046       .  S
N544        H560   1.046       .  S
C546        C547   1.399       .  A
C546        H551   1.084       .  S
C547        C548   1.404       .  A
C547        N552   1.432       .  S
C548        C549   1.397       .  A
C549        C550   1.400       .  A
C549        H553   1.081       .  S
C550        N554   1.438       .  S
N552        H555   1.046       .  S
N552        H556   1.045       .  S
N554        H557   1.046       .  S
N554       H1764   1.045       .  S
H558       N1760   1.045       .  S
C563        C564   1.411       .  A
C563        C568   1.407       .  A
C564        C565   1.395       .  A
C564        N569   1.428       .  S
C565        C566   1.395       .  A
C565        H570   1.084       .  S
C566        C571   1.467       .  S
C566        C567   1.406       .  A
C567        C568   1.404       .  A
C567        N572   1.437       .  S
C568        H573   1.083       .  S
N569        H589   1.046       .  S
N569        H590   1.046       .  S
C571        C578   1.406       .  A
C571       C2986   1.399   1_455  A
N572        H587   1.045       .  S
N572        H588   1.046       .  S
C574        C575   1.403       .  A
C574       C2983   1.399       .  A
C574        H579   1.084       .  S
C575        C576   1.412       .  A
C575        N580   1.438       .  S
C576        C577   1.402       .  A
C577       C2990   1.402       .  A
C577        H581   1.084       .  S
C578       C2989   1.402   1_455  A
C578        N582   1.438       .  S
N580        H583   1.046       .  S
N580        H584   1.045       .  S
N582        H585   1.046       .  S
N582        H586   1.045       .  S
C591        C592   1.415       .  A
C591        C596   1.403       .  A
C592        C593   1.398       .  A
C592        N597   1.438       .  S
C593        C594   1.403       .  A
C593        H598   1.084       .  S
C594        C599   1.480       .  S
C594        C595   1.409       .  A
C595        C596   1.402       .  A
C595        N600   1.438       .  S
C596        H601   1.080       .  S
N597        H617   1.042       .  S
N597        H618   1.046       .  S
C599        C602   1.401       .  A
C599        C606   1.409       .  A
N600        H615   1.046       .  S
N600        H616   1.046       .  S
C602        C603   1.405       .  A
C602        H607   1.084       .  S
C603        C604   1.418       .  A
C603        N608   1.438       .  S
C604        C605   1.405       .  A
C605        C606   1.403       .  A
C605        H609   1.083       .  S
C606        N610   1.438       .  S
N608        H611   1.046       .  S
N608        H612   1.045       .  S
N610        H613   1.045       .  S
N610        H614   1.046       .  S
C619        C620   1.410       .  A
C619        C624   1.403       .  A
C620        C621   1.418       .  A
C620        N625   1.437       .  S
C621        C622   1.413       .  A
C621        H626   1.083       .  S
C622       C1833   1.513       .  S
C622        C623   1.418       .  A
C623        C624   1.407       .  A
C623        N628   1.438       .  S
C624        H629   1.083       .  S
N625        H645   1.045       .  S
N625        H646   1.046       .  S
C627       C1828   1.512   1_545  S
C627        C630   1.404       .  A
C627        C634   1.420       .  A
N628        H643   1.046       .  S
N628       H1850   1.045       .  S
C630        C631   1.400       .  A
C630        H635   1.083       .  S
C631        C632   1.421       .  A
C631        N636   1.438       .  S
C632        C633   1.405       .  A
C633        C634   1.420       .  A
C633        H637   1.083       .  S
C634        N638   1.437       .  S
N636        H639   1.045       .  S
N636        H640   1.041       .  S
N638        H641   1.045       .  S
N638        H642   1.046       .  S
H644       N1834   1.045   1_545  S
C647        C648   1.429       .  A
C647        C652   1.409       .  A
C648        C649   1.399       .  A
C648        N653   1.430       .  S
C649        C650   1.396       .  A
C649       H3066   1.084       .  S
C650       C3067   1.499       .  S
C650        C651   1.416       .  A
C651        C652   1.422       .  A
C651        N656   1.438       .  S
C652        H657   1.083       .  S
N653        H673   1.044       .  S
N653        H674   1.032       .  S
H654       C3061   1.084       .  S
C655       C3062   1.499   1_455  S
C655        C658   1.403       .  A
C655        C662   1.415       .  A
N656        H671   1.045       .  S
N656        H672   1.043       .  S
C658        C659   1.409       .  A
C658        H663   1.084       .  S
C659        C660   1.416       .  A
C659        N664   1.438       .  S
C660        C661   1.405       .  A
C661        C662   1.417       .  A
C661        H665   1.078       .  S
C662        N666   1.438       .  S
N664        H667   1.046       .  S
N664        H668   1.045       .  S
N666        H669   1.046       .  S
N666        H670   1.043       .  S
C675        C676   1.407       .  A
C675        C680   1.405       .  A
C676        C677   1.405       .  A
C676        N681   1.426       .  S
C677        C678   1.405       .  A
C677        H682   1.083       .  S
C678        C683   1.509       .  S
C678        C679   1.419       .  A
C679        C680   1.417       .  A
C679        N684   1.437       .  S
C680        H685   1.082       .  S
N681        H701   1.047       .  S
N681        H702   1.043       .  S
C683        C686   1.410       .  A
C683        C690   1.416       .  A
N684        H699   1.046       .  S
N684        H700   1.045       .  S
C686        C687   1.415       .  A
C686        H691   1.083       .  S
C687        C688   1.410       .  A
C687        N692   1.433       .  S
C688        C689   1.408       .  A
C689        C690   1.408       .  A
C689        H693   1.084       .  S
C690        N694   1.438       .  S
N692        H695   1.046       .  S
N692        H696   1.045       .  S
N694        H697   1.046       .  S
N694        H698   1.046       .  S
C703        C704   1.408       .  A
C703        C708   1.403       .  A
C704        C705   1.399       .  A
C704        N709   1.431       .  S
C705        C706   1.401       .  A
C705        H710   1.084       .  S
C706        C711   1.479       .  S
C706        C707   1.410       .  A
C707        C708   1.405       .  A
C707        N712   1.437       .  S
C708        H713   1.084       .  S
N709        H729   1.045       .  S
N709        H730   1.046       .  S
C711        C714   1.399       .  A
C711        C718   1.407       .  A
N712        H727   1.045       .  S
N712        H728   1.047       .  S
C714        C715   1.404       .  A
C714        H719   1.084       .  S
C715        C716   1.420       .  A
C715        N720   1.438       .  S
C716        C717   1.409       .  A
C717        C718   1.405       .  A
C717        H721   1.083       .  S
C718        N722   1.438       .  S
N720        H723   1.046       .  S
N720        H724   1.046       .  S
N722        H725   1.046       .  S
N722        H726   1.045       .  S
C731        C732   1.417       .  A
C731        C736   1.401       .  A
C732        C733   1.400       .  A
C732       N1943   1.437       .  S
C733        C734   1.402       .  A
C733        H738   1.084       .  S
C734        C739   1.483       .  S
C734        C735   1.410       .  A
C735        C736   1.405       .  A
C735        N740   1.437       .  S
C736       H3153   1.084   1_455  S
N737       C1938   1.437   1_545  S
N737        H757   1.042       .  S
N737        H758   1.045       .  S
C739        C742   1.402       .  A
C739        C746   1.407       .  A
N740        H756   1.046       .  S
N740       H3167   1.046   1_455  S
H741       C3148   1.084       .  S
C742        C743   1.407       .  A
C742        H747   1.084       .  S
C743        C744   1.417       .  A
C743        N748   1.438       .  S
C744        C745   1.408       .  A
C745        C746   1.403       .  A
C745        H749   1.084       .  S
C746        N750   1.438       .  S
N748        H751   1.046       .  S
N748        H752   1.045       .  S
N750        H753   1.047       .  S
N750        H754   1.044       .  S
H755       N3152   1.046       .  S
C759        C760   1.417       .  A
C759        C764   1.409       .  A
C760        C761   1.404       .  A
C760        N765   1.438       .  S
C761        C762   1.400       .  A
C761        H766   1.084       .  S
C762        C767   1.472       .  S
C762        C763   1.405       .  A
C763        C764   1.400       .  A
C763        N768   1.439       .  S
C764        H769   1.083       .  S
N765        H785   1.046       .  S
N765        H786   1.045       .  S
C767        C770   1.398       .  A
C767        C774   1.408       .  A
N768        H783   1.045       .  S
N768        H784   1.046       .  S
C770        C771   1.398       .  A
C770        H775   1.084       .  S
C771        C772   1.410       .  A
C771       N3188   1.428   1_455  S
C772        C773   1.401       .  A
C773        C774   1.404       .  A
C773        H777   1.078       .  S
C774        N778   1.438       .  S
N776       C3183   1.428       .  S
N776        H779   1.045       .  S
N776        H780   1.046       .  S
N778        H781   1.046       .  S
N778        H782   1.045       .  S
C787        C788   1.412       .  A
C787        C792   1.400       .  A
C788        C789   1.400       .  A
C788        N793   1.430       .  S
C789        C790   1.402       .  A
C789        H794   1.084       .  S
C790        C795   1.479       .  S
C790        C791   1.411       .  A
C791        C792   1.397       .  A
C791        N796   1.432       .  S
C792        H797   1.083       .  S
N793        H813   1.042       .  S
N793        H814   1.046       .  S
C795        C798   1.400       .  A
C795        C802   1.405       .  A
N796        H811   1.045       .  S
N796        H812   1.045       .  S
C798        C799   1.407       .  A
C798        H803   1.084       .  S
C799        C800   1.419       .  A
C799        N804   1.438       .  S
C800        C801   1.411       .  A
C801        C802   1.406       .  A
C801        H805   1.083       .  S
C802        N806   1.438       .  S
N804       H2013   1.046       .  S
N804       H2014   1.045       .  S
N806        H809   1.046       .  S
N806        H810   1.045       .  S
H807       N2010   1.046       .  S
H808       N2010   1.045       .  S
C815        C816   1.413       .  A
C815        C820   1.403       .  A
C816        C817   1.403       .  A
C816        N821   1.437       .  S
C817        C818   1.400       .  A
C817        H822   1.084       .  S
C818        C823   1.478       .  S
C818        C819   1.409       .  A
C819        C820   1.404       .  A
C819        N824   1.438       .  S
C820        H825   1.082       .  S
N821        H841   1.045       .  S
N821        H842   1.046       .  S
C823        C826   1.402       .  A
C823        C830   1.410       .  A
N824        H839   1.045       .  S
N824        H840   1.046       .  S
C826        C827   1.403       .  A
C826        H831   1.084       .  S
C827        C828   1.409       .  A
C827       N2038   1.438       .  S
C828        C829   1.402       .  A
C829        C830   1.405       .  A
C829        H833   1.084       .  S
C830        N834   1.437       .  S
N832       C2033   1.438   1_545  S
N832        H835   1.046       .  S
N832        H836   1.046       .  S
N834        H837   1.047       .  S
N834        H838   1.044       .  S
C843        C844   1.419       .  A
C843        C848   1.403       .  A
C844        C845   1.400       .  A
C844        N849   1.438       .  S
C845        C846   1.400       .  A
C845        H850   1.084       .  S
C846        C851   1.470       .  S
C846        C847   1.405       .  A
C847        C848   1.398       .  A
C847        N852   1.438       .  S
C848        H853   1.084       .  S
N849        H869   1.041       .  S
N849        H870   1.047       .  S
C851        C854   1.399       .  A
C851        C858   1.407       .  A
N852        H867   1.046       .  S
N852        H868   1.045       .  S
C854        C855   1.403       .  A
C854        H859   1.084       .  S
C855        C856   1.414       .  A
C855        N860   1.438       .  S
C856        C857   1.403       .  A
C857        C858   1.403       .  A
C857        H861   1.084       .  S
C858        N862   1.438       .  S
N860       H3275   1.046   1_455  S
N860       H3276   1.046   1_455  S
N862        H865   1.045       .  S
N862        H866   1.046       .  S
H863       N3272   1.046       .  S
H864       N3272   1.046       .  S
C871        C872   1.411       .  A
C871        C876   1.405       .  A
C872        C873   1.401       .  A
C872        N877   1.433       .  S
C873        C874   1.406       .  A
C873        H878   1.082       .  S
C874        C879   1.513       .  S
C874        C875   1.423       .  A
C875        C876   1.419       .  A
C875        N880   1.437       .  S
C876        H881   1.083       .  S
N877        H897   1.045       .  S
N877        H898   1.045       .  S
C879        C882   1.412       .  A
C879        C886   1.420       .  A
N880        H895   1.045       .  S
N880        H896   1.045       .  S
C882        C883   1.416       .  A
C882        H887   1.082       .  S
C883        C884   1.411       .  A
C883       N3300   1.437   1_455  S
C884        C885   1.399       .  A
C885        C886   1.408       .  A
C885       H2095   1.082       .  S
C886        N890   1.438       .  S
N888       C3295   1.437       .  S
N888        H891   1.046       .  S
N888        H892   1.045       .  S
H889       C2091   1.082   1_545  S
N890        H894   1.045       .  S
N890       H2099   1.046       .  S
H893       N2096   1.046   1_545  S
C899        C900   1.408       .  A
C899        C904   1.403       .  A
C900        C901   1.406       .  A
C900        N905   1.431       .  S
C901        C902   1.406       .  A
C901        H906   1.083       .  S
C902        C907   1.502       .  S
C902        C903   1.414       .  A
C903        C904   1.412       .  A
C903        N908   1.432       .  S
C904        H909   1.083       .  S
N905        H925   1.045       .  S
N905        H926   1.045       .  S
C907        C910   1.401       .  A
C907        C914   1.417       .  A
N908        H923   1.046       .  S
N908        H924   1.045       .  S
C910        C911   1.402       .  A
C910        H915   1.084       .  S
C911        C912   1.424       .  A
C911        N916   1.436       .  S
C912        C913   1.404       .  A
C913        C914   1.417       .  A
C913        H917   1.082       .  S
C914        N918   1.437       .  S
N916       H2125   1.048       .  S
N916       H2126   1.036       .  S
N918        H921   1.046       .  S
N918        H922   1.045       .  S
H919       N2122   1.048       .  S
H920       N2122   1.036       .  S
C927        C928   1.405       .  A
C927        C932   1.407       .  A
C928        C929   1.413       .  A
C928        N933   1.431       .  S
C929        C930   1.416       .  A
C929        H934   1.082       .  S
C930        C935   1.513       .  S
C930        C931   1.417       .  A
C931        C932   1.406       .  A
C931        N936   1.438       .  S
C932        H937   1.083       .  S
N933        H953   1.045       .  S
N933        H954   1.046       .  S
C935        C938   1.414       .  A
C935        C942   1.417       .  A
N936        H951   1.046       .  S
N936        H952   1.046       .  S
C938        C939   1.410       .  A
C938        H943   1.082       .  S
C939        C940   1.404       .  A
C939        N944   1.432   1_455  S
C940        C941   1.403       .  A
C941        C942   1.408       .  A
C941        H945   1.084       .  S
C942        N946   1.432       .  S
N944        H947   1.045       .  S
N944        H948   1.045       .  S
N946        H949   1.045       .  S
N946        H950   1.046       .  S
C955        C956   1.402       .  A
C955        C960   1.396       .  A
C956        C957   1.403       .  A
C956        N961   1.432       .  S
C957        C958   1.404       .  A
C957        H962   1.084       .  S
C958        C963   1.474       .  S
C958        C959   1.416       .  A
C959        C960   1.395       .  A
C959        N964   1.439       .  S
C960        H965   1.078       .  S
N961        H981   1.046       .  S
N961        H982   1.044       .  S
C963        C966   1.396       .  A
C963        C970   1.409       .  A
N964        H979   1.046       .  S
N964        H980   1.043       .  S
C966        C967   1.401       .  A
C966        H971   1.084       .  S
C967        C968   1.419       .  A
C967        N972   1.438       .  S
C968        C969   1.408       .  A
C969        C970   1.406       .  A
C969        H973   1.083       .  S
C970        N974   1.438       .  S
N972       H3387   1.046       .  S
N972       H3388   1.046       .  S
N974        H977   1.046       .  S
N974        H978   1.044       .  S
H975       N3384   1.046       .  S
H976       N3384   1.046   1_455  S
C983        C984   1.420       .  A
C983        C988   1.406       .  A
C984        C985   1.406       .  A
C984        N989   1.438       .  S
C985        C986   1.399       .  A
C985        H990   1.084       .  S
C986        C991   1.481       .  S
C986        C987   1.409       .  A
C987        C988   1.406       .  A
C987        N992   1.438       .  S
C988        H993   1.083       .  S
N989       H2215   1.045   1_545  S
N989       H2216   1.046       .  S
C991        C994   1.400       .  A
C991        C998   1.412       .  A
N992       H1007   1.046       .  S
N992       H1008   1.046       .  S
C994        C995   1.403       .  A
C994        H999   1.084       .  S
C995        C996   1.410       .  A
C995       N1000   1.437       .  S
C996        C997   1.404       .  A
C997        C998   1.408       .  A
C997       H1001   1.083       .  S
C998       N1002   1.437       .  S
N1000      H1003   1.045       .  S
N1000      H1004   1.045       .  S
N1002      H1005   1.046       .  S
N1002      H1006   1.045       .  S
H1009      N2195   1.045       .  S
H1010      N2195   1.046       .  S
C1011      C1012   1.415       .  A
C1011      C1016   1.403       .  A
C1012      C1013   1.403       .  A
C1012      N1017   1.438       .  S
C1013      C1014   1.399       .  A
C1013      H1018   1.084       .  S
C1014      C1019   1.469       .  S
C1014      C1015   1.407       .  A
C1015      C1016   1.401       .  A
C1015      N1020   1.438       .  S
C1016      H1021   1.084       .  S
N1017      H1037   1.046       .  S
N1017      H1038   1.046       .  S
C1019      C1022   1.394       .  A
C1019      C1026   1.407       .  A
N1020      H1035   1.046       .  S
N1020      H1036   1.046       .  S
C1022      C1023   1.394       .  A
C1022      H1027   1.085       .  S
C1023      C1024   1.410       .  A
C1023      N1028   1.427       .  S
C1024      C1025   1.408       .  A
C1025      C1026   1.405       .  A
C1025      H1029   1.083       .  S
C1026      N1030   1.437       .  S
N1028      H1031   1.046       .  S
N1028      H1032   1.046       .  S
N1030      H1033   1.046       .  S
N1030      H1034   1.045       .  S
C1039      C1040   1.413       .  A
C1039      C1044   1.406       .  A
C1040      C1041   1.410       .  A
C1040      N1045   1.437       .  S
C1041      C1042   1.403       .  A
C1041      H1046   1.084       .  S
C1042      C1047   1.475       .  S
C1042      C1043   1.404       .  A
C1043      C1044   1.399       .  A
C1043      N1048   1.438       .  S
C1044      H1049   1.084       .  S
N1045      H1065   1.045       .  S
N1045      H1066   1.046       .  S
C1047      C1050   1.397       .  A
C1047      C1054   1.408       .  A
N1048      H1063   1.045       .  S
N1048      H1064   1.046       .  S
C1050      C1051   1.402       .  A
C1050      H1055   1.084       .  S
C1051      C1052   1.418       .  A
C1051      N2262   1.439       .  S
C1052      C1053   1.406       .  A
C1053      C1054   1.405       .  A
C1053      H1057   1.084       .  S
C1054      N1058   1.438       .  S
N1056      C2257   1.439   1_545  S
N1056      H1059   1.045       .  S
N1056      H1060   1.046       .  S
N1058      H1061   1.046       .  S
N1058      H1062   1.045       .  S
C1067      C1068   1.421       .  A
C1067      C1072   1.409       .  A
C1068      C1069   1.410       .  A
C1068      N1073   1.438   1_455  S
C1069      C1070   1.400       .  A
C1069      H1074   1.084       .  S
C1070      C1075   1.487       .  S
C1070      C1071   1.408       .  A
C1071      C1072   1.407       .  A
C1071      N1076   1.438       .  S
C1072      H1077   1.083       .  S
N1073      H3505   1.046       .  S
N1073      H3506   1.046       .  S
C1075      C1078   1.403       .  A
C1075      C1082   1.407       .  A
N1076      H1091   1.045       .  S
N1076      H1092   1.046       .  S
C1078      C1079   1.410       .  A
C1078      H1083   1.084       .  S
C1079      C1080   1.415       .  A
C1079      N1084   1.437       .  S
C1080      C1081   1.411       .  A
C1081      C1082   1.407       .  A
C1081      H1085   1.084       .  S
C1082      N1086   1.438       .  S
N1084      H1087   1.046       .  S
N1084      H1088   1.045       .  S
N1086      H1089   1.046       .  S
N1086      H1090   1.046       .  S
H1093      N3485   1.046       .  S
H1094      N3485   1.046       .  S
C1095      C1096   1.420       .  A
C1095      C1100   1.405       .  A
C1096      C1097   1.403       .  A
C1096      N1101   1.439       .  S
C1097      C1098   1.398       .  A
C1097      H1102   1.084       .  S
C1098      C1103   1.478       .  S
C1098      C1099   1.409       .  A
C1099      C1100   1.404       .  A
C1099      N1104   1.438       .  S
C1100      H1105   1.084       .  S
N1101      H1121   1.046       .  S
N1101      H1122   1.046       .  S
C1103      C1106   1.404       .  A
C1103      C1110   1.408       .  A
N1104      H1119   1.046       .  S
N1104      H1120   1.045       .  S
C1106      C1107   1.407       .  A
C1106      H1111   1.084       .  S
C1107      C1108   1.410       .  A
C1107      N1112   1.437       .  S
C1108      C1109   1.403       .  A
C1109      C1110   1.401       .  A
C1109      H1113   1.084       .  S
C1110      N1114   1.438       .  S
N1112      H1115   1.046       .  S
N1112      H1116   1.045       .  S
N1114      H1117   1.045       .  S
N1114      H1118   1.046       .  S
C1123      C1124   1.419       .  A
C1123      C1128   1.408       .  A
C1124      C1125   1.410       .  A
C1124      N1129   1.438       .  S
C1125      C2332   1.403       .  A
C1125      H1130   1.084       .  S
C1126      C1131   1.490       .  S
C1126      C2331   1.403       .  A
C1126      C2333   1.409   1_545  A
C1127      C1128   1.408       .  A
C1127      C2332   1.409       .  A
C1127      N2338   1.438       .  S
C1128      H1133   1.083       .  S
N1129      H1149   1.045       .  S
N1129      H1150   1.046       .  S
C1131      C1134   1.404       .  A
C1131      C1138   1.420       .  A
N1132      C2333   1.438       .  S
N1132      H1148   1.046       .  S
N1132      H2353   1.046       .  S
C1134      C1135   1.405       .  A
C1134      H1139   1.084       .  S
C1135      C1136   1.410       .  A
C1135      N1140   1.432       .  S
C1136      C1137   1.402       .  A
C1137      C1138   1.403       .  A
C1137      H1141   1.084       .  S
C1138      N1142   1.438       .  S
N1140      H1143   1.045       .  S
N1140      H1144   1.046       .  S
N1142      H1145   1.045       .  S
N1142      H2352   1.043   1_545  S
H1146      N2348   1.043       .  S
H1147      N2338   1.045       .  S
C1151      C1152   1.412       .  A
C1151      C1156   1.407       .  A
C1152      C1153   1.403       .  A
C1152      N1157   1.438       .  S
C1153      C3566   1.400   1_455  A
C1153      H1158   1.084       .  S
C1154      C1159   1.473       .  S
C1154      C1155   1.406       .  A
C1154      C3565   1.400       .  A
C1155      C3568   1.406       .  A
C1155      N1160   1.438       .  S
C1156      C3567   1.406       .  A
C1156      H1161   1.084       .  S
N1157      H1177   1.045       .  S
N1157      H1178   1.046       .  S
C1159      C1162   1.396       .  A
C1159      C1166   1.405       .  A
N1160      H1175   1.045       .  S
N1160      H1176   1.045       .  S
C1162      C1163   1.401       .  A
C1162      H1167   1.084       .  S
C1163      C1164   1.418       .  A
C1163      N1168   1.430       .  S
C1164      C1165   1.409       .  A
C1165      C1166   1.404       .  A
C1165      H1169   1.082       .  S
C1166      N1170   1.437       .  S
N1168      H1171   1.046       .  S
N1168      H1172   1.045       .  S
N1170      H1173   1.046       .  S
N1170      H3586   1.045       .  S
H1174      N3582   1.045       .  S
C1179      C1180   1.414       .  A
C1179      C1184   1.406       .  A
C1180      C1181   1.406       .  A
C1180      N1185   1.437       .  S
C1181      C1182   1.402       .  A
C1181      H1186   1.084       .  S
C1182      C1187   1.481       .  S
C1182      C1183   1.409       .  A
C1183      C1184   1.403       .  A
C1183      N1188   1.438       .  S
C1184      H1189   1.084       .  S
N1185      H1205   1.046       .  S
N1185      H1206   1.045       .  S
C1187      C1190   1.400       .  A
C1187      C1194   1.417       .  A
N1188      H1203   1.046       .  S
N1188      H1204   1.045       .  S
C1190      C1191   1.395       .  A
C1190      H1195   1.085       .  S
C1191      C1192   1.413       .  A
C1191      N1196   1.435       .  S
C1192      C1193   1.402       .  A
C1193      C1194   1.402       .  A
C1193      H1197   1.083       .  S
C1194      N1198   1.437       .  S
N1196      H1199   1.051       .  S
N1196      H1200   1.031       .  S
N1198      H1201   1.046       .  S
N1198      H1202   1.043       .  S
Zn1207     O1211   1.918       .  S
Zn1207     O1212   1.981       .  S
Zn1207     O1216   1.963       .  S
Zn1207     O1223   1.996       .  S
Zn1208     O1211   1.961       .  S
Zn1208     O1213   2.032       .  S
Zn1208     O1215   2.039       .  S
Zn1208     O1219   2.020       .  S
Zn1209     O1211   1.963       .  S
Zn1209     O1214   2.061       .  S
Zn1209     O1217   2.043       .  S
Zn1209     O1220   2.025       .  S
Zn1210     O1211   1.964       .  S
Zn1210     O1218   2.007       .  S
Zn1210     O1221   2.026       .  S
Zn1210     O1222   2.053       .  S
O1212      C1224   1.270       .  A
O1213      C1225   1.275       .  A
O1214      C1226   1.277       .  A
O1215      C1224   1.275       .  A
O1216      C1226   1.269       .  A
O1217      C1225   1.277       .  A
O1218      C1227   1.273       .  A
O1219      C1228   1.276       .  A
O1220      C1227   1.277       .  A
O1221      C1228   1.276       .  A
O1222      C1229   1.276       .  A
O1223      C1229   1.270       .  A
C1224      C2314   1.472       .  S
C1225      C2329   1.495       .  S
C1226      C2245   1.480       .  S
C1227      C2357   1.479       .  S
C1228      C2385   1.483       .  S
C1229      C2286   1.493       .  S
Zn1230     O1235   2.045       .  S
Zn1230     O3651   2.025       .  S
Zn1231     O1234   1.936       .  S
Zn1231     O2442   1.985   1_565  S
Zn1231     O1242   1.997       .  S
Zn1232     O2440   1.953   1_455  S
Zn1232     O1237   2.021       .  S
Zn1232     O1240   2.019       .  S
Zn1233     O1234   1.965       .  S
Zn1233     O3653   2.007       .  S
Zn1233     O1244   2.031       .  S
Zn1233     O1245   1.997       .  S
O1234     Zn2438   1.953   1_565  S
O1235      C1247   1.278       .  A
O1236     Zn2437   1.985   1_455  S
O1236      C1248   1.270       .  A
O1237      C1249   1.274       .  A
O1238      C1247   1.271       .  A
O1239     Zn3642   2.025       .  S
O1239      C1249   1.273   1_655  A
O1240      C1248   1.275       .  A
O1241     Zn3645   2.007   1_455  S
O1241      C1250   1.272       .  A
O1242      C1251   1.271       .  A
O1243      C1250   1.271       .  A
O1244      C1251   1.275       .  A
O1245      C1252   1.272       .  A
O1246      C1252   1.275       .  A
C1247      C2189   1.490       .  S
C1248      C2217   1.473       .  S
C1249      C2273   1.497       .  S
C1250      C2258   1.480       .  S
C1251      C2174   1.488       .  S
C1252      C2301   1.483       .  S
C1253      H1254   1.110       .  S
C1253      C1259   1.561       .  S
C1253      C1258   1.559       .  S
C1253      C1257   1.556       .  S
C1255      H1256   1.112       .  S
C1255      C1261   1.517       .  S
C1255      C1260   1.527       .  S
C1255      C1262   1.518       .  S
C1257      C1260   1.379       .  D
C1257      C2077   1.503       .  S
C1258      C1261   1.372       .  D
C1258      C2105   1.491       .  S
C1259      C1262   1.379       .  D
C1259      C2133   1.506       .  S
C1260      C2021   1.488       .  S
C1261      C1993   1.481       .  S
C1262      C2049   1.481       .  S
C1263      H1264   1.110       .  S
C1263      C2475   1.560       .  S
C1263      C3679   1.556       .  S
C1265      H1266   1.112       .  S
C1265      C3682   1.527       .  S
C1265      C2478   1.520       .  S
C1267      C3675   1.556   1_455  S
C1267      C1270   1.373       .  D
C1267      C2146   1.493       .  S
C1268      C1271   1.378       .  D
C1268      C2118   1.505       .  S
C1269      C2469   1.560   1_465  S
C1269      C1272   1.371       .  D
C1269      C2090   1.495       .  S
C1270      C3677   1.527       .  S
C1270      C1978   1.484       .  S
C1271      C1909   1.483       .  S
C1272      C2471   1.520   1_565  S
C1272      C1937   1.481       .  S
C1273      H1274   1.109       .  S
C1273      C1279   1.568       .  S
C1273      C1278   1.555       .  S
C1273      C1277   1.567       .  S
C1275      H1276   1.111       .  S
C1275      C1281   1.524       .  S
C1275      C1280   1.515       .  S
C1275      C1282   1.522       .  S
C1277      C1280   1.379       .  D
C1277      C1894   1.507       .  S
C1278      C1281   1.367       .  D
C1278      C1825   1.500       .  S
C1279      C1282   1.379       .  D
C1279      C1866   1.507       .  S
C1280      C1797   1.484       .  S
C1281      C1754   1.472       .  S
C1282      C1769   1.491       .  S
C1283      H1284   1.110       .  S
C1283      C1289   1.569       .  S
C1283      C1288   1.571       .  S
C1283      C1287   1.550       .  S
C1285      H1286   1.105       .  S
C1285      C1291   1.533       .  S
C1285      C1290   1.538       .  S
C1285      C1292   1.518       .  S
C1287      C1290   1.369       .  D
C1287      C1881   1.502       .  S
C1288      C1291   1.387       .  D
C1288      C1853   1.520       .  S
C1289      C1292   1.376       .  D
C1289      C1838   1.504       .  S
C1290      C2398   1.481       .  S
C1291      C2370   1.504       .  S
C1292      C2342   1.494       .  S
Zn1293     O1297   1.907       .  S
Zn1293     O1298   1.965       .  S
Zn1293     O1302   1.959       .  S
Zn1293     O1309   1.968       .  S
Zn1294     O1297   1.961       .  S
Zn1294     O1299   2.022       .  S
Zn1294     O1301   2.056       .  S
Zn1294     O1305   2.007       .  S
Zn1295     O1297   1.964       .  S
Zn1295     O1300   2.052       .  S
Zn1295     O1303   2.004       .  S
Zn1295     O1306   2.012       .  S
Zn1296     O1297   1.962       .  S
Zn1296     O1304   2.002       .  S
Zn1296     O1307   2.005       .  S
Zn1296     O1308   2.033       .  S
O1298      C1310   1.268       .  A
O1299      C1311   1.276       .  A
O1300      C1312   1.275       .  A
O1301      C1310   1.276       .  A
O1302      C1312   1.267       .  A
O1303      C1311   1.272       .  A
O1304      C1313   1.272       .  A
O1305      C1314   1.273       .  A
O1306      C1313   1.273       .  A
O1307      C1314   1.273       .  A
O1308      C1315   1.273       .  A
O1309      C1315   1.267       .  A
C1310      C1726   1.492       .  S
C1311      C1810   1.484       .  S
C1312      C1698   1.474       .  S
C1313      C1782   1.468       .  S
C1314      C1741   1.470       .  S
C1315      C1670   1.476       .  S
Zn1316     O2526   1.955   1_565  S
Zn1316     O1325   2.027       .  S
Zn1316     O1332   1.996       .  S
Zn1317     O1320   1.956       .  S
Zn1317     O1322   2.024       .  S
Zn1317     O3736   1.997   1_455  S
Zn1317     O1328   2.021       .  S
Zn1318     O1320   1.941       .  S
Zn1318     O2529   2.017   1_455  S
Zn1318     O1326   1.995       .  S
Zn1319     O1327   2.018       .  S
Zn1319     O3743   1.997   1_455  S
O1320     Zn2522   1.955   1_455  S
O1321      C1333   1.271       .  A
O1322      C1334   1.276       .  A
O1323     Zn2524   2.017   1_565  S
O1323      C1335   1.274       .  A
O1324     Zn3729   1.996       .  S
O1324      C1333   1.272       .  A
O1325      C1335   1.274       .  A
O1326      C1334   1.272       .  A
O1327      C1336   1.274       .  A
O1328      C1337   1.273       .  A
O1329      C1336   1.273       .  A
O1330      C1337   1.272       .  A
O1331     Zn3731   1.998       .  S
O1331      C1338   1.272       .  A
O1332      C1338   1.271       .  A
C1333      C1657   1.486       .  S
C1334      C2062   1.473       .  S
C1335      C2006   1.495       .  S
C1336      C2034   1.469       .  S
C1337      C1713   1.492       .  S
C1338      C1685   1.479       .  S
C1339      H1340   1.110       .  S
C1339      C1345   1.526       .  S
C1339      C1344   1.531       .  S
C1339      C1343   1.517       .  S
C1341      H1342   1.109       .  S
C1341      C1347   1.558       .  S
C1341      C1346   1.564       .  S
C1341      C1348   1.554       .  S
C1343      C1346   1.372       .  D
C1343      C2202   1.488       .  S
C1344      C1347   1.382       .  D
C1344      C2230   1.492       .  S
C1345      C1348   1.370       .  D
C1345      C2161   1.475       .  S
C1346      C1573   1.494       .  S
C1347      C1642   1.507       .  S
C1348      C1601   1.498       .  S
C1349      H1350   1.110       .  S
C1349      C3767   1.525       .  S
C1349      C1353   1.529       .  S
C1351      H1352   1.109       .  S
C1351      C1356   1.560       .  S
C1351      C3770   1.569       .  S
C1353      C1356   1.382       .  D
C1353      C1517   1.495       .  S
C1354      C1357   1.367       .  D
C1354      C1489   1.477       .  S
C1355      C3761   1.525   1_455  S
C1355      C1358   1.381       .  D
C1355      C1545   1.499       .  S
C1356      C1586   1.505       .  S
C1357      C1614   1.498       .  S
C1358      C3763   1.569   1_455  S
C1358      C1629   1.508       .  S
Zn1359     O1363   1.968       .  S
Zn1359     O1364   2.026       .  S
Zn1359     O1368   2.015       .  S
Zn1359     O1375   2.023       .  S
Zn1360     O1363   1.935       .  S
Zn1360     O1365   2.005       .  S
Zn1360     O1367   2.007       .  S
Zn1360     O1371   1.988       .  S
Zn1361     O1363   1.952       .  S
Zn1361     O1366   1.990       .  S
Zn1361     O1369   2.022       .  S
Zn1361     O1372   2.016       .  S
Zn1362     O1363   1.949       .  S
Zn1362     O1370   2.008       .  S
Zn1362     O1373   2.011       .  S
Zn1362     O1374   1.994       .  S
O1364      C1376   1.274       .  A
O1365      C1377   1.271       .  A
O1366      C1378   1.272       .  A
O1367      C1376   1.273       .  A
O1368      C1378   1.274       .  A
O1369      C1377   1.275       .  A
O1370      C1379   1.271       .  A
O1371      C1380   1.272       .  A
O1372      C1379   1.272       .  A
O1373      C1380   1.273       .  A
O1374      C1381   1.272       .  A
O1375      C1381   1.273       .  A
C1376      C1950   1.488       .  S
C1377      C1922   1.491       .  S
C1378      C1446   1.468       .  S
C1379      C1405   1.480       .  S
C1380      C1965   1.485       .  S
C1381      C1461   1.475       .  S
Zn1382     O1386   1.938       .  S
Zn1382     O1387   2.002       .  S
Zn1382     O1391   1.999       .  S
Zn1382     O1398   1.997       .  S
Zn1383     O1386   1.962       .  S
Zn1383     O1388   2.004       .  S
Zn1383     O1390   2.046       .  S
Zn1383     O1394   2.013       .  S
Zn1384     O1386   1.965       .  S
Zn1384     O1389   2.022       .  S
Zn1384     O1392   2.015       .  S
Zn1384     O1395   2.028       .  S
Zn1385     O1386   1.953       .  S
Zn1385     O1393   1.998       .  S
Zn1385     O1396   1.993       .  S
Zn1385     O1397   2.021       .  S
O1387      C1399   1.271       .  A
O1388      C1400   1.273       .  A
O1389      C1401   1.275       .  A
O1390      C1399   1.277       .  A
O1391      C1401   1.272       .  A
O1392      C1400   1.274       .  A
O1393      C1402   1.271       .  A
O1394      C1403   1.273       .  A
O1395      C1402   1.274       .  A
O1396      C1403   1.271       .  A
O1397      C1404   1.274       .  A
O1398      C1404   1.272       .  A
C1399      C1558   1.492       .  S
C1400      C1418   1.479       .  S
C1401      C1502   1.486       .  S
C1402      C1474   1.485       .  S
C1403      C1433   1.475       .  S
C1404      C1530   1.482       .  S
C1405      C1406   1.416       .  A
C1405      C1410   1.405       .  A
C1406      C1407   1.404       .  A
C1406      N1411   1.438       .  S
C1407      C1408   1.398       .  A
C1407      H1412   1.084       .  S
C1408      C1413   1.475       .  S
C1408      C1409   1.409       .  A
C1409      C1410   1.406       .  A
C1409      N1414   1.438       .  S
C1410      H1415   1.084       .  S
N1411      H1431   1.046       .  S
N1411      H1432   1.046       .  S
C1413      C1416   1.397       .  A
C1413      C1420   1.409   1_556  A
N1414      H1429   1.045       .  S
N1414      H1430   1.045       .  S
C1416      C1417   1.402   1_556  A
C1416      H1421   1.084       .  S
C1417      C1418   1.416       .  A
C1417      N1422   1.439       .  S
C1418      C1419   1.405       .  A
C1419      C1420   1.406       .  A
C1419      H1423   1.084       .  S
C1420      N1424   1.438       .  S
N1422      H1425   1.046   1_554  S
N1422      H1426   1.046       .  S
N1424      H1427   1.046       .  S
N1424      H1428   1.044   1_554  S
C1433      C1434   1.411       .  A
C1433      C1438   1.407       .  A
C1434      C1435   1.403       .  A
C1434      N1439   1.437       .  S
C1435      C1436   1.400   1_554  A
C1436      C1437   1.405       .  A
C1437      C1438   1.402   1_556  A
C1437      N1442   1.438       .  S
C1438      H1443   1.084       .  S
N1439      H1459   1.045       .  S
N1439      H1460   1.046       .  S
C1441      C1444   1.402   1_565  A
C1441      C1448   1.405       .  A
N1442      H1457   1.046       .  S
N1442      H1458   1.045       .  S
C1444      C1445   1.405   1_545  A
C1445      C1446   1.409       .  A
C1445      N1450   1.437       .  S
C1446      C1447   1.403       .  A
C1447      C1448   1.399       .  A
C1447      H1451   1.084       .  S
C1448      N1452   1.438       .  S
N1450      H1453   1.046   1_565  S
N1450      H1454   1.045       .  S
N1452      H1455   1.045       .  S
N1452      H1456   1.045       .  S
C1461      C1462   1.412       .  A
C1461      C1466   1.403       .  A
C1462      C1463   1.410       .  A
C1462      N1467   1.437       .  S
C1463      C1464   1.406       .  A
C1463      H1468   1.084   1_455  S
C1464      C3881   1.481   1_455  S
C1464      C1465   1.408       .  A
C1465      C1466   1.398       .  A
C1465      N1470   1.438       .  S
C1466      H1471   1.084       .  S
N1467      H1487   1.045       .  S
N1467      H1488   1.046       .  S
C1469      C3876   1.481       .  S
C1469      C1472   1.400       .  A
C1469      C1476   1.409   1_556  A
N1470      H1485   1.046       .  S
N1470      H3898   1.046   1_556  S
C1472      C1473   1.402   1_556  A
C1472      H1477   1.084       .  S
C1473      C1474   1.418       .  A
C1473      N1478   1.439       .  S
C1474      C1475   1.407       .  A
C1475      C1476   1.408       .  A
C1475      H1479   1.083       .  S
C1476      N3892   1.437       .  S
N1478      H1481   1.046   1_554  S
N1478      H1482   1.045       .  S
N1480      C3888   1.437   1_455  S
N1480      H1483   1.045   1_455  S
N1480      H1484   1.046       .  S
H1486      N3882   1.046   1_554  S
C1489      C1490   1.413       .  A
C1489      C1494   1.399       .  A
C1490      C1491   1.402       .  A
C1490      N1495   1.437       .  S
C1491      C1492   1.400       .  A
C1491      H1496   1.084       .  S
C1492      C1497   1.476       .  S
C1492      C1493   1.409       .  A
C1493      C1494   1.403       .  A
C1493      N1498   1.437       .  S
C1494      H3911   1.084       .  S
N1495      H1515   1.041       .  S
N1495      H1516   1.045       .  S
C1497      C1500   1.400       .  A
C1497      C1504   1.407       .  A
N1498      H3925   1.045       .  S
N1498      H1514   1.046       .  S
H1499      C3906   1.084   1_455  S
C1500      C1501   1.404       .  A
C1500      H1505   1.084       .  S
C1501      C1502   1.416       .  A
C1501      N1506   1.438       .  S
C1502      C1503   1.409       .  A
C1503      C1504   1.404       .  A
C1503      H1507   1.083       .  S
C1504      N1508   1.439       .  S
N1506      H1509   1.046       .  S
N1506      H1510   1.046       .  S
N1508      H1511   1.046       .  S
N1508      H1512   1.045       .  S
H1513      N3910   1.045   1_455  S
C1517      C1518   1.416       .  A
C1517      C1522   1.405       .  A
C1518      C1519   1.406       .  A
C1518      N1523   1.437       .  S
C1519      C1520   1.401       .  A
C1519      H1524   1.084       .  S
C1520      C1525   1.475       .  S
C1520      C1521   1.405       .  A
C1521      C1522   1.400       .  A
C1521      N1526   1.438       .  S
N1523      H1543   1.044       .  S
N1523      H1544   1.046       .  S
C1525      C1528   1.401       .  A
C1525      C1532   1.405       .  A
N1526      H1542   1.046       .  S
C1528      C1529   1.405       .  A
C1528      H1533   1.084       .  S
C1529      C1530   1.415       .  A
C1529      N1534   1.438       .  S
C1530      C1531   1.407       .  A
C1531      C1532   1.402       .  A
C1531      H1535   1.084       .  S
C1532      N1536   1.438       .  S
N1534      H1537   1.046       .  S
N1534      H1538   1.046       .  S
N1536      H1539   1.046       .  S
N1536      H1540   1.045       .  S
C1545      C1546   1.415       .  A
C1545      C1550   1.407       .  A
C1546      C1547   1.402       .  A
C1546      N1551   1.436       .  S
C1547      C1548   1.397       .  A
C1547      H1552   1.084       .  S
C1548      C1553   1.483       .  S
C1548      C1549   1.411       .  A
C1549      C1550   1.410       .  A
C1549      N1554   1.437       .  S
C1550      H1555   1.083       .  S
N1551      H1571   1.044       .  S
N1551      H1572   1.045       .  S
C1553      C1556   1.398       .  A
C1553      C1560   1.410       .  A
N1554      H1569   1.046       .  S
N1554      H1570   1.045       .  S
C1556      C1557   1.406       .  A
C1556      H1561   1.084       .  S
C1557      C1558   1.419       .  A
C1557      N1562   1.438       .  S
C1558      C1559   1.407       .  A
C1559      C1560   1.409       .  A
C1559      H1563   1.083       .  S
C1560      N1564   1.438       .  S
N1562      H1565   1.045       .  S
N1562      H1566   1.046       .  S
N1564      H1567   1.045       .  S
N1564      H1568   1.046       .  S
C1573      C1574   1.408       .  A
C1573      C1578   1.406       .  A
C1574      C1575   1.410       .  A
C1574      N1579   1.434       .  S
C1575      C1576   1.406       .  A
C1575      H1580   1.084       .  S
C1576      C1581   1.492       .  S
C1576      C1577   1.418       .  A
C1577      C1578   1.404       .  A
C1577      N1582   1.438       .  S
C1578      H1583   1.084       .  S
N1579      H1599   1.045       .  S
N1579      H1600   1.046       .  S
C1581      C1584   1.406       .  A
C1581      C1588   1.408       .  A
N1582      H1597   1.045       .  S
N1582      H1598   1.044       .  S
C1584      C1585   1.410       .  A
C1584      H1589   1.084       .  S
C1585      C1586   1.421       .  A
C1585      N4002   1.438       .  S
C1586      C1587   1.411       .  A
C1587      C1588   1.406       .  A
C1588      N1592   1.438       .  S
N1590      C3997   1.438       .  S
N1590      H1593   1.046   1_655  S
N1590      H1594   1.040   1_655  S
N1592      H1596   1.043       .  S
C1601      C1602   1.408       .  A
C1601      C1606   1.401       .  A
C1602      C1603   1.406       .  A
C1602      N1607   1.432       .  S
C1603      C1604   1.409       .  A
C1603      H1608   1.081       .  S
C1604      C1609   1.516       .  S
C1604      C1605   1.421       .  A
C1605      C1606   1.412       .  A
C1605      N1610   1.432       .  S
C1606      H1611   1.078       .  S
N1607      H1627   1.044       .  S
N1607      H1628   1.046       .  S
C1609      C1612   1.411       .  A
C1609      C1616   1.421       .  A
N1610      H1625   1.046       .  S
N1610      H1626   1.046       .  S
C1612      C1613   1.411       .  A
C1612      H1617   1.082       .  S
C1613      C1614   1.408       .  A
C1613      N4030   1.435       .  S
C1614      C1615   1.401       .  A
C1615      C1616   1.412       .  A
C1615      H1619   1.082       .  S
C1616      N1620   1.438       .  S
N1618      C4025   1.435   1_455  S
N1618      H1621   1.045       .  S
N1618      H1622   1.046       .  S
N1620      H1623   1.046       .  S
N1620      H1624   1.045       .  S
C1629      C1630   1.413       .  A
C1629      C1634   1.408       .  A
C1630      C1631   1.416       .  A
C1631      C1632   1.406       .  A
C1631      H1636   1.084       .  S
C1632      C1637   1.498       .  S
C1632      C1633   1.411       .  A
C1633      C1634   1.410       .  A
C1633      N1638   1.437       .  S
C1634      H1639   1.084       .  S
N1635      H1655   1.045       .  S
N1635      H1656   1.045       .  S
C1637      C1640   1.407       .  A
C1637      C1644   1.409       .  A
N1638      H1653   1.046       .  S
N1638      H1654   1.044       .  S
C1640      C1641   1.416       .  A
C1640      H1645   1.084       .  S
C1641      C1642   1.413       .  A
C1641      N1646   1.437       .  S
C1642      C1643   1.410       .  A
C1643      C1644   1.409       .  A
C1643      H1647   1.084       .  S
C1644      N1648   1.438       .  S
N1646      H1649   1.045       .  S
N1646      H1650   1.044       .  S
N1648      H1651   1.045       .  S
N1648      H1652   1.046       .  S
C1657      C1658   1.416       .  A
C1657      C1662   1.408       .  A
C1658      C1659   1.401       .  A
C1659      C1660   1.400       .  A
C1659      H1664   1.084       .  S
C1660      C1665   1.478       .  S
C1660      C1661   1.407       .  A
C1661      C1662   1.401       .  A
C1661      N1666   1.438       .  S
C1662      H1667   1.083       .  S
N1663      H1683   1.046   1_545  S
N1663      H1684   1.045       .  S
C1665      C1668   1.399       .  A
C1665      C1672   1.410       .  A
N1666      H4093   1.046       .  S
N1666      H1682   1.045       .  S
C1668      C1669   1.398       .  A
C1668      H1673   1.084       .  S
C1669      C1670   1.414       .  A
C1669      N1674   1.439       .  S
C1670      C1671   1.404       .  A
C1671      C1672   1.407       .  A
C1671      H1675   1.084       .  S
C1672      N1676   1.437       .  S
N1674      H1677   1.045       .  S
N1674      H1678   1.046       .  S
N1676      H1679   1.045       .  S
N1676      H1680   1.046       .  S
H1681      N4078   1.046   1_455  S
C1685      C1686   1.418       .  A
C1685      C1690   1.405       .  A
C1686      C1687   1.402       .  A
C1686      N1691   1.439       .  S
C1687      C1688   1.399       .  A
C1687      H1692   1.084       .  S
C1688      C1693   1.477       .  S
C1688      C1689   1.408       .  A
C1689      C1690   1.403       .  A
C1689      N1694   1.438       .  S
C1690      H1695   1.084       .  S
N1691      H1711   1.046       .  S
N1691      H1712   1.045       .  S
C1693      C1696   1.405       .  A
C1693      C1700   1.406       .  A
N1694      H1709   1.046       .  S
N1694      H1710   1.046       .  S
C1696      C1697   1.409       .  A
C1696      H1701   1.084       .  S
C1697      C1698   1.410       .  A
C1697      N1702   1.437       .  S
C1698      C1699   1.405       .  A
C1699      C1700   1.398       .  A
C1699      H1703   1.084       .  S
C1700      N1704   1.438       .  S
N1702      H1705   1.046       .  S
N1702      H1706   1.046       .  S
N1704      H1707   1.045       .  S
N1704      H1708   1.046       .  S
C1713      C1714   1.417       .  A
C1713      C1718   1.410       .  A
C1714      C1715   1.405       .  A
C1714      N1719   1.438       .  S
C1715      C1716   1.401       .  A
C1715      H1720   1.084       .  S
C1716      C1721   1.483       .  S
C1716      C1717   1.408       .  A
C1717      C1718   1.407       .  A
C1717      N1722   1.438       .  S
C1718      H1723   1.083       .  S
N1719      H1739   1.046       .  S
N1719      H1740   1.045       .  S
C1721      C1724   1.404       .  A
C1721      C1728   1.405       .  A
N1722      H1737   1.046       .  S
N1722      H1738   1.046       .  S
C1724      C1725   1.412       .  A
C1724      H1729   1.084       .  S
C1725      C1726   1.416       .  A
C1725      N1730   1.437       .  S
C1726      C1727   1.410       .  A
C1727      C1728   1.399       .  A
C1727      H1731   1.083       .  S
C1728      N1732   1.439       .  S
N1730      H1733   1.045       .  S
N1730      H1734   1.046       .  S
N1732      H1735   1.046       .  S
N1732      H1736   1.046       .  S
C1741      C1742   1.412       .  A
C1741      C1746   1.403       .  A
C1742      C1743   1.401       .  A
C1742      N1747   1.438       .  S
C1743      H1748   1.084       .  S
C1744      C1749   1.475   1_545  S
C1744      C1745   1.410       .  A
C1745      N1750   1.438   1_545  S
C1746      H1751   1.084       .  S
N1747      H1767   1.044       .  S
N1747      H1768   1.046       .  S
C1749      C1752   1.403       .  A
C1749      C1756   1.411       .  A
N1750      H1765   1.046       .  S
N1750      H1766   1.046       .  S
C1752      C1753   1.399       .  A
C1752      H1757   1.084       .  S
C1753      C1754   1.404       .  A
C1753      N1758   1.432       .  S
C1754      C1755   1.397       .  A
C1755      C1756   1.400       .  A
C1755      H1759   1.081       .  S
C1756      N1760   1.438       .  S
N1758      H1761   1.046       .  S
N1758      H1762   1.045       .  S
N1760      H1763   1.046       .  S
C1769      C1770   1.411       .  A
C1769      C1774   1.407       .  A
C1770      C1771   1.395       .  A
C1770      N1775   1.428       .  S
C1771      C1772   1.395       .  A
C1771      H1776   1.084       .  S
C1772      C1777   1.467       .  S
C1772      C1773   1.406       .  A
C1773      C1774   1.405       .  A
C1773      N1778   1.437       .  S
C1774      H1779   1.083       .  S
N1775      H1795   1.046       .  S
N1775      H1796   1.046       .  S
C1777      C4192   1.399   1_455  A
C1777      C1784   1.406       .  A
N1778      H1793   1.045       .  S
N1778      H1794   1.046       .  S
C1780      C4189   1.399       .  A
C1780      C1781   1.403       .  A
C1780      H1785   1.084       .  S
C1781      C1782   1.412       .  A
C1781      N1786   1.438       .  S
C1782      C1783   1.402       .  A
C1783      C4196   1.402       .  A
C1783      H1787   1.084       .  S
C1784      C4195   1.402   1_455  A
C1784      N1788   1.438       .  S
N1786      H1789   1.046       .  S
N1786      H1790   1.045       .  S
N1788      H1791   1.046       .  S
N1788      H1792   1.045       .  S
C1797      C1798   1.415       .  A
C1797      C1802   1.403       .  A
C1798      C1799   1.398       .  A
C1798      N1803   1.438       .  S
C1799      C1800   1.403       .  A
C1799      H1804   1.084       .  S
C1800      C1805   1.480       .  S
C1800      C1801   1.409       .  A
C1801      C1802   1.402       .  A
C1801      N1806   1.438       .  S
C1802      H1807   1.080       .  S
N1803      H1823   1.042       .  S
N1803      H1824   1.046       .  S
C1805      C1808   1.401       .  A
C1805      C1812   1.409       .  A
N1806      H1821   1.046       .  S
N1806      H1822   1.046       .  S
C1808      C1809   1.405       .  A
C1808      H1813   1.084       .  S
C1809      C1810   1.418       .  A
C1809      N1814   1.438       .  S
C1810      C1811   1.405       .  A
C1811      C1812   1.403       .  A
C1811      H1815   1.083       .  S
C1812      N1816   1.438       .  S
N1814      H1817   1.046       .  S
N1814      H1818   1.045       .  S
N1816      H1819   1.045       .  S
N1816      H1820   1.046       .  S
C1825      C1826   1.410       .  A
C1825      C1830   1.403       .  A
C1826      C1827   1.418       .  A
C1826      N1831   1.437       .  S
C1827      C1828   1.413       .  A
C1827      H1832   1.083       .  S
C1828      C1829   1.418       .  A
C1829      C1830   1.407       .  A
C1829      N1834   1.438       .  S
C1830      H1835   1.083       .  S
N1831      H1851   1.045       .  S
N1831      H1852   1.046       .  S
C1833      C1836   1.404       .  A
C1833      C1840   1.420       .  A
N1834      H1849   1.046       .  S
C1836      C1837   1.400       .  A
C1836      H1841   1.083       .  S
C1837      C1838   1.421       .  A
C1837      N1842   1.438       .  S
C1838      C1839   1.405       .  A
C1839      C1840   1.420       .  A
C1839      H1843   1.083       .  S
C1840      N1844   1.437       .  S
N1842      H1845   1.045       .  S
N1842      H1846   1.041       .  S
N1844      H1847   1.045       .  S
N1844      H1848   1.046       .  S
C1853      C1854   1.429       .  A
C1853      C1858   1.409       .  A
C1854      C1855   1.399       .  A
C1854      N1859   1.430       .  S
C1855      C1856   1.396       .  A
C1855      H4272   1.084       .  S
C1856      C4273   1.499       .  S
C1856      C1857   1.416       .  A
C1857      C1858   1.422       .  A
C1857      N1862   1.438       .  S
C1858      H1863   1.083       .  S
N1859      H1879   1.044       .  S
N1859      H1880   1.031       .  S
H1860      C4267   1.084       .  S
C1861      C4268   1.499   1_455  S
C1861      C1864   1.403       .  A
C1861      C1868   1.415       .  A
N1862      H1877   1.045       .  S
N1862      H1878   1.043       .  S
C1864      C1865   1.409       .  A
C1864      H1869   1.084       .  S
C1865      C1866   1.416       .  A
C1865      N1870   1.438       .  S
C1866      C1867   1.405       .  A
C1867      C1868   1.417       .  A
C1867      H1871   1.078       .  S
C1868      N1872   1.438       .  S
N1870      H1873   1.046       .  S
N1870      H1874   1.045       .  S
N1872      H1875   1.046       .  S
N1872      H1876   1.043       .  S
C1881      C1882   1.407       .  A
C1881      C1886   1.405       .  A
C1882      C1883   1.405       .  A
C1882      N1887   1.426       .  S
C1883      C1884   1.405       .  A
C1883      H1888   1.083       .  S
C1884      C1889   1.509       .  S
C1884      C1885   1.419       .  A
C1885      C1886   1.417       .  A
C1885      N1890   1.437       .  S
C1886      H1891   1.082       .  S
N1887      H1907   1.047       .  S
N1887      H1908   1.043       .  S
C1889      C1892   1.410       .  A
C1889      C1896   1.416       .  A
N1890      H1905   1.046       .  S
N1890      H1906   1.046       .  S
C1892      C1893   1.415       .  A
C1892      H1897   1.083       .  S
C1893      C1894   1.410       .  A
C1893      N1898   1.433       .  S
C1894      C1895   1.408       .  A
C1895      C1896   1.408       .  A
C1895      H1899   1.084       .  S
C1896      N1900   1.438       .  S
N1898      H1901   1.046       .  S
N1898      H1902   1.045       .  S
N1900      H1903   1.046       .  S
N1900      H1904   1.046       .  S
C1909      C1910   1.408       .  A
C1909      C1914   1.403       .  A
C1910      C1911   1.399       .  A
C1910      N1915   1.431   1_565  S
C1911      C1912   1.401       .  A
C1911      H1916   1.084       .  S
C1912      C1917   1.479       .  S
C1912      C1913   1.410       .  A
C1913      C1914   1.404       .  A
C1913      N1918   1.437       .  S
C1914      H1919   1.083       .  S
N1915      H1935   1.045       .  S
N1915      H1936   1.046       .  S
C1917      C1920   1.399       .  A
C1917      C1924   1.407       .  A
N1918      H1933   1.045       .  S
N1918      H1934   1.047       .  S
C1920      C1921   1.404       .  A
C1920      H1925   1.084       .  S
C1921      C1922   1.420       .  A
C1921      N1926   1.438       .  S
C1922      C1923   1.409       .  A
C1923      C1924   1.405       .  A
C1923      H1927   1.083       .  S
C1924      N1928   1.438       .  S
N1926      H1929   1.046       .  S
N1926      H1930   1.046       .  S
N1928      H1931   1.046       .  S
N1928      H1932   1.045       .  S
C1937      C1938   1.417       .  A
C1937      C1942   1.402       .  A
C1938      C1939   1.400       .  A
C1939      C1940   1.402       .  A
C1939      H1944   1.084       .  S
C1940      C1945   1.483       .  S
C1940      C1941   1.410       .  A
C1941      C1942   1.405       .  A
C1941      N1946   1.437       .  S
C1942      H4359   1.084   1_455  S
N1943      H1963   1.042       .  S
N1943      H1964   1.045       .  S
C1945      C1948   1.403       .  A
C1945      C1952   1.408       .  A
N1946      H4373   1.046   1_455  S
N1946      H1962   1.046       .  S
H1947      C4354   1.084       .  S
C1948      C1949   1.407       .  A
C1948      H1953   1.084       .  S
C1949      C1950   1.417       .  A
C1949      N1954   1.438       .  S
C1950      C1951   1.408       .  A
C1951      C1952   1.404       .  A
C1951      H1955   1.084       .  S
C1952      N1956   1.438       .  S
N1954      H1957   1.046       .  S
N1954      H1958   1.045       .  S
N1956      H1959   1.047       .  S
N1956      H1960   1.044       .  S
H1961      N4358   1.046       .  S
C1965      C1966   1.417       .  A
C1965      C1970   1.409       .  A
C1966      C1967   1.404       .  A
C1966      N1971   1.438       .  S
C1967      C1968   1.400       .  A
C1967      H1972   1.084       .  S
C1968      C1973   1.472       .  S
C1968      C1969   1.405       .  A
C1969      C1970   1.400       .  A
C1969      N1974   1.439       .  S
C1970      H1975   1.083       .  S
N1971      H1991   1.046       .  S
N1971      H1992   1.045       .  S
C1973      C1976   1.398       .  A
C1973      C1980   1.408       .  A
N1974      H1989   1.045       .  S
N1974      H1990   1.046       .  S
C1976      C1977   1.398       .  A
C1976      H1981   1.084       .  S
C1977      C1978   1.410       .  A
C1977      N4394   1.428   1_455  S
C1978      C1979   1.401       .  A
C1979      C1980   1.404       .  A
C1979      H1983   1.078       .  S
C1980      N1984   1.438       .  S
N1982      C4389   1.428       .  S
N1982      H1985   1.045       .  S
N1982      H1986   1.046       .  S
N1984      H1987   1.046       .  S
N1984      H1988   1.045       .  S
C1993      C1994   1.412       .  A
C1993      C1998   1.400       .  A
C1994      C1995   1.400       .  A
C1994      N1999   1.430       .  S
C1995      C1996   1.402       .  A
C1995      H2000   1.084       .  S
C1996      C2001   1.479       .  S
C1996      C1997   1.411       .  A
C1997      C1998   1.397       .  A
C1997      N2002   1.432       .  S
C1998      H2003   1.083       .  S
N1999      H2019   1.042       .  S
N1999      H2020   1.046       .  S
C2001      C2004   1.400       .  A
C2001      C2008   1.405       .  A
N2002      H2017   1.045       .  S
N2002      H2018   1.045       .  S
C2004      C2005   1.407       .  A
C2004      H2009   1.084       .  S
C2005      C2006   1.419       .  A
C2005      N2010   1.438       .  S
C2006      C2007   1.411       .  A
C2007      C2008   1.406       .  A
C2007      H2011   1.083       .  S
C2008      N2012   1.438       .  S
N2012      H2015   1.046       .  S
N2012      H2016   1.045       .  S
C2021      C2022   1.413       .  A
C2021      C2026   1.403       .  A
C2022      C2023   1.403       .  A
C2022      N2027   1.437       .  S
C2023      C2024   1.400       .  A
C2023      H2028   1.084       .  S
C2024      C2029   1.478       .  S
C2024      C2025   1.409       .  A
C2025      C2026   1.404       .  A
C2025      N2030   1.438       .  S
C2026      H2031   1.082       .  S
N2027      H2047   1.045       .  S
N2027      H2048   1.046       .  S
C2029      C2032   1.402       .  A
C2029      C2036   1.410       .  A
N2030      H2045   1.045       .  S
N2030      H2046   1.046       .  S
C2032      C2033   1.403       .  A
C2032      H2037   1.084       .  S
C2033      C2034   1.409       .  A
C2034      C2035   1.402       .  A
C2035      C2036   1.405       .  A
C2035      H2039   1.084       .  S
C2036      N2040   1.437       .  S
N2038      H2041   1.046       .  S
N2038      H2042   1.046       .  S
N2040      H2043   1.047       .  S
N2040      H2044   1.044       .  S
C2049      C2050   1.419       .  A
C2049      C2054   1.402       .  A
C2050      C2051   1.400       .  A
C2050      N2055   1.438       .  S
C2051      C2052   1.400       .  A
C2051      H2056   1.084       .  S
C2052      C2057   1.470       .  S
C2052      C2053   1.405       .  A
C2053      C2054   1.398       .  A
C2053      N2058   1.438       .  S
C2054      H2059   1.084       .  S
N2055      H2075   1.041       .  S
N2055      H2076   1.047       .  S
C2057      C2060   1.399       .  A
C2057      C2064   1.407       .  A
N2058      H2073   1.046       .  S
N2058      H2074   1.045       .  S
C2060      C2061   1.403       .  A
C2060      H2065   1.084       .  S
C2061      C2062   1.414       .  A
C2061      N2066   1.438       .  S
C2062      C2063   1.403       .  A
C2063      C2064   1.403       .  A
C2063      H2067   1.084       .  S
C2064      N2068   1.438       .  S
N2066      H4481   1.046   1_455  S
N2066      H4482   1.046   1_455  S
N2068      H2071   1.045       .  S
N2068      H2072   1.046       .  S
H2069      N4478   1.046       .  S
H2070      N4478   1.046       .  S
C2077      C2078   1.411       .  A
C2077      C2082   1.405       .  A
C2078      C2079   1.401       .  A
C2078      N2083   1.433       .  S
C2079      C2080   1.406       .  A
C2079      H2084   1.082       .  S
C2080      C2085   1.513       .  S
C2080      C2081   1.423       .  A
C2081      C2082   1.419       .  A
C2081      N2086   1.437       .  S
C2082      H2087   1.083       .  S
N2083      H2103   1.045       .  S
N2083      H2104   1.045       .  S
C2085      C2088   1.412       .  A
C2085      C2092   1.420       .  A
N2086      H2101   1.045       .  S
N2086      H2102   1.045       .  S
C2088      C2089   1.416       .  A
C2088      H2093   1.082       .  S
C2089      C2090   1.411       .  A
C2089      N4506   1.437   1_455  S
C2090      C2091   1.400       .  A
C2091      C2092   1.408       .  A
C2092      N2096   1.438       .  S
N2094      C4501   1.437       .  S
N2094      H2097   1.045       .  S
N2094      H2098   1.045       .  S
N2096      H2100   1.045       .  S
C2105      C2106   1.407       .  A
C2105      C2110   1.404       .  A
C2106      C2107   1.405       .  A
C2106      N2111   1.431       .  S
C2107      C2108   1.406       .  A
C2107      H2112   1.083       .  S
C2108      C2113   1.502       .  S
C2108      C2109   1.414       .  A
C2109      C2110   1.412       .  A
C2109      N2114   1.432       .  S
C2110      H2115   1.083       .  S
N2111      H2131   1.045       .  S
N2111      H2132   1.045       .  S
C2113      C2116   1.401       .  A
C2113      C2120   1.417       .  A
N2114      H2129   1.046       .  S
N2114      H2130   1.045       .  S
C2116      C2117   1.402       .  A
C2116      H2121   1.084       .  S
C2117      C2118   1.424       .  A
C2117      N2122   1.436   1_565  S
C2118      C2119   1.404       .  A
C2119      C2120   1.417       .  A
C2119      H2123   1.082       .  S
C2120      N2124   1.437       .  S
N2124      H2127   1.046       .  S
N2124      H2128   1.045       .  S
C2133      C2134   1.405       .  A
C2133      C2138   1.406       .  A
C2134      C2135   1.413       .  A
C2134      N2139   1.431       .  S
C2135      C2136   1.416       .  A
C2135      H2140   1.082       .  S
C2136      C2141   1.514       .  S
C2136      C2137   1.417       .  A
C2137      C2138   1.406       .  A
C2137      N2142   1.438       .  S
C2138      H2143   1.083       .  S
N2139      H2159   1.045       .  S
N2139      H2160   1.046       .  S
C2141      C2144   1.414       .  A
C2141      C2148   1.417       .  A
N2142      H2157   1.046       .  S
N2142      H2158   1.046       .  S
C2144      C2145   1.410       .  A
C2144      H2149   1.082       .  S
C2145      C2146   1.404       .  A
C2145      N2150   1.432   1_455  S
C2146      C2147   1.403       .  A
C2147      C2148   1.408       .  A
C2147      H2151   1.084       .  S
C2148      N2152   1.432       .  S
N2150      H2153   1.045       .  S
N2150      H2154   1.045       .  S
N2152      H2155   1.045       .  S
N2152      H2156   1.046       .  S
C2161      C2162   1.402       .  A
C2161      C2166   1.396       .  A
C2162      C2163   1.403       .  A
C2162      N2167   1.432       .  S
C2163      C2164   1.404       .  A
C2163      H2168   1.084       .  S
C2164      C2169   1.474       .  S
C2164      C2165   1.416       .  A
C2165      C2166   1.395       .  A
C2165      N2170   1.439       .  S
C2166      H2171   1.077       .  S
N2167      H2187   1.046       .  S
N2167      H2188   1.044       .  S
C2169      C2172   1.396       .  A
C2169      C2176   1.409       .  A
N2170      H2185   1.046       .  S
N2170      H2186   1.043       .  S
C2172      C2173   1.401       .  A
C2172      H2177   1.084       .  S
C2173      C2174   1.419       .  A
C2173      N2178   1.438       .  S
C2174      C2175   1.408       .  A
C2175      C2176   1.406       .  A
C2175      H2179   1.083       .  S
C2176      N2180   1.438       .  S
N2178      H4593   1.046       .  S
N2178      H4594   1.046       .  S
N2180      H2183   1.046       .  S
N2180      H2184   1.044       .  S
H2181      N4590   1.046       .  S
H2182      N4590   1.046   1_455  S
C2189      C2190   1.420       .  A
C2189      C2194   1.406       .  A
C2190      C2191   1.406       .  A
C2190      N2195   1.438       .  S
C2191      C2192   1.399       .  A
C2191      H2196   1.084       .  S
C2192      C2197   1.481       .  S
C2192      C2193   1.409       .  A
C2193      C2194   1.406       .  A
C2193      N2198   1.438       .  S
C2194      H2199   1.083       .  S
C2197      C2200   1.400       .  A
C2197      C2204   1.412       .  A
N2198      H2213   1.046       .  S
N2198      H2214   1.046       .  S
C2200      C2201   1.402       .  A
C2200      H2205   1.084       .  S
C2201      C2202   1.410       .  A
C2201      N2206   1.437       .  S
C2202      C2203   1.404       .  A
C2203      C2204   1.408       .  A
C2203      H2207   1.083       .  S
C2204      N2208   1.437       .  S
N2206      H2209   1.045       .  S
N2206      H2210   1.045       .  S
N2208      H2211   1.046       .  S
N2208      H2212   1.045       .  S
C2217      C2218   1.415       .  A
C2217      C2222   1.403       .  A
C2218      C2219   1.403       .  A
C2218      N2223   1.438       .  S
C2219      C2220   1.399       .  A
C2219      H2224   1.084       .  S
C2220      C2225   1.469       .  S
C2220      C2221   1.407       .  A
C2221      C2222   1.401       .  A
C2221      N2226   1.438       .  S
C2222      H2227   1.084       .  S
N2223      H2243   1.046       .  S
N2223      H2244   1.046       .  S
C2225      C2228   1.394       .  A
C2225      C2232   1.407       .  A
N2226      H2241   1.046       .  S
N2226      H2242   1.046       .  S
C2228      C2229   1.394       .  A
C2228      H2233   1.085       .  S
C2229      C2230   1.410       .  A
C2229      N2234   1.426       .  S
C2230      C2231   1.408       .  A
C2231      C2232   1.405       .  A
C2231      H2235   1.083       .  S
C2232      N2236   1.437       .  S
N2234      H2237   1.046       .  S
N2234      H2238   1.046       .  S
N2236      H2239   1.046       .  S
N2236      H2240   1.045       .  S
C2245      C2246   1.413       .  A
C2245      C2250   1.406       .  A
C2246      C2247   1.410       .  A
C2246      N2251   1.437       .  S
C2247      C2248   1.403       .  A
C2247      H2252   1.084       .  S
C2248      C2253   1.474       .  S
C2248      C2249   1.404       .  A
C2249      C2250   1.399       .  A
C2249      N2254   1.438       .  S
C2250      H2255   1.084       .  S
N2251      H2271   1.045       .  S
N2251      H2272   1.046       .  S
C2253      C2256   1.397       .  A
C2253      C2260   1.408       .  A
N2254      H2269   1.045       .  S
N2254      H2270   1.046       .  S
C2256      C2257   1.402       .  A
C2256      H2261   1.084       .  S
C2257      C2258   1.418       .  A
C2258      C2259   1.406       .  A
C2259      C2260   1.405       .  A
C2259      H2263   1.084       .  S
C2260      N2264   1.438       .  S
N2262      H2265   1.045       .  S
N2262      H2266   1.046       .  S
N2264      H2267   1.046       .  S
N2264      H2268   1.045       .  S
C2273      C2274   1.421       .  A
C2273      C2278   1.409       .  A
C2274      C2275   1.410       .  A
C2274      N2279   1.438   1_455  S
C2275      C2276   1.400       .  A
C2275      H2280   1.084       .  S
C2276      C2281   1.487       .  S
C2276      C2277   1.408       .  A
C2277      C2278   1.407       .  A
C2277      N2282   1.438       .  S
C2278      H2283   1.083       .  S
N2279      H4711   1.046       .  S
N2279      H4712   1.046       .  S
C2281      C2284   1.403       .  A
C2281      C2288   1.407       .  A
N2282      H2297   1.045       .  S
N2282      H2298   1.046       .  S
C2284      C2285   1.410       .  A
C2284      H2289   1.084       .  S
C2285      C2286   1.415       .  A
C2285      N2290   1.437       .  S
C2286      C2287   1.411       .  A
C2287      C2288   1.407       .  A
C2287      H2291   1.084       .  S
C2288      N2292   1.438       .  S
N2290      H2293   1.046       .  S
N2290      H2294   1.045       .  S
N2292      H2295   1.046       .  S
N2292      H2296   1.046       .  S
H2299      N4691   1.046       .  S
H2300      N4691   1.046       .  S
C2301      C2302   1.420       .  A
C2301      C2306   1.405       .  A
C2302      C2303   1.403       .  A
C2302      N2307   1.439       .  S
C2303      C2304   1.399       .  A
C2303      H2308   1.084       .  S
C2304      C2309   1.478       .  S
C2304      C2305   1.409       .  A
C2305      C2306   1.404       .  A
C2305      N2310   1.438       .  S
C2306      H2311   1.084       .  S
N2307      H2327   1.046       .  S
N2307      H2328   1.046       .  S
C2309      C2312   1.404       .  A
C2309      C2316   1.408       .  A
N2310      H2325   1.046       .  S
N2310      H2326   1.045       .  S
C2312      C2313   1.407       .  A
C2312      H2317   1.084       .  S
C2313      C2314   1.410       .  A
C2313      N2318   1.437       .  S
C2314      C2315   1.403       .  A
C2315      C2316   1.401       .  A
C2315      H2319   1.084       .  S
C2316      N2320   1.438       .  S
N2318      H2321   1.046       .  S
N2318      H2322   1.045       .  S
N2320      H2323   1.045       .  S
N2320      H2324   1.046       .  S
C2329      C2330   1.419       .  A
C2329      C2334   1.408       .  A
C2330      C2331   1.410   1_565  A
C2330      N2335   1.438       .  S
C2331      H2336   1.084       .  S
C2332      C2337   1.490       .  S
C2333      C2334   1.408       .  A
C2334      H2339   1.083       .  S
N2335      H2355   1.045       .  S
N2335      H2356   1.046       .  S
C2337      C2340   1.404       .  A
C2337      C2344   1.420       .  A
N2338      H2354   1.046       .  S
C2340      C2341   1.405       .  A
C2340      H2345   1.084       .  S
C2341      C2342   1.410       .  A
C2341      N2346   1.432       .  S
C2342      C2343   1.402       .  A
C2343      C2344   1.403       .  A
C2343      H2347   1.084       .  S
C2344      N2348   1.438       .  S
N2346      H2349   1.045       .  S
N2346      H2350   1.046       .  S
N2348      H2351   1.045       .  S
C2357      C2358   1.412       .  A
C2357      C2362   1.407       .  A
C2358      C2359   1.403       .  A
C2358      N2363   1.438       .  S
C2359      C4772   1.400   1_455  A
C2359      H2364   1.084       .  S
C2360      C2365   1.473       .  S
C2360      C4771   1.400       .  A
C2360      C2361   1.406       .  A
C2361      C4774   1.406       .  A
C2361      N2366   1.438       .  S
C2362      C4773   1.406       .  A
C2362      H2367   1.084       .  S
N2363      H2383   1.045       .  S
N2363      H2384   1.046       .  S
C2365      C2368   1.396       .  A
C2365      C2372   1.405       .  A
N2366      H2381   1.045       .  S
N2366      H2382   1.045       .  S
C2368      C2369   1.401       .  A
C2368      H2373   1.084       .  S
C2369      C2370   1.418       .  A
C2369      N2374   1.430       .  S
C2370      C2371   1.409       .  A
C2371      C2372   1.404       .  A
C2371      H2375   1.082       .  S
C2372      N2376   1.437       .  S
N2374      H2377   1.046       .  S
N2374      H2378   1.045       .  S
N2376      H2379   1.046       .  S
N2376      H4792   1.045       .  S
H2380      N4788   1.045       .  S
C2385      C2386   1.414       .  A
C2385      C2390   1.406       .  A
C2386      C2387   1.406       .  A
C2386      N2391   1.437       .  S
C2387      C2388   1.402       .  A
C2387      H2392   1.084       .  S
C2388      C2393   1.481       .  S
C2388      C2389   1.409       .  A
C2389      C2390   1.404       .  A
C2389      N2394   1.438       .  S
C2390      H2395   1.084       .  S
N2391      H2411   1.046       .  S
N2391      H2412   1.045       .  S
C2393      C2396   1.400       .  A
C2393      C2400   1.417       .  A
N2394      H2409   1.046       .  S
N2394      H2410   1.045       .  S
C2396      C2397   1.395       .  A
C2396      H2401   1.084       .  S
C2397      C2398   1.413       .  A
C2397      N2402   1.435       .  S
C2398      C2399   1.403       .  A
C2399      C2400   1.402       .  A
C2399      H2403   1.083       .  S
C2400      N2404   1.437       .  S
N2402      H2405   1.051       .  S
N2402      H2406   1.031       .  S
N2404      H2407   1.046       .  S
N2404      H2408   1.043       .  S
Zn2413     O2417   1.918       .  S
Zn2413     O2418   1.981       .  S
Zn2413     O2422   1.963       .  S
Zn2413     O2429   1.996       .  S
Zn2414     O2417   1.961       .  S
Zn2414     O2419   2.032       .  S
Zn2414     O2421   2.039       .  S
Zn2414     O2425   2.020       .  S
Zn2415     O2417   1.963       .  S
Zn2415     O2420   2.061       .  S
Zn2415     O2423   2.043       .  S
Zn2415     O2426   2.026       .  S
Zn2416     O2417   1.964       .  S
Zn2416     O2424   2.007       .  S
Zn2416     O2427   2.026       .  S
Zn2416     O2428   2.053       .  S
O2418      C2430   1.270       .  A
O2419      C2431   1.275       .  A
O2420      C2432   1.277       .  A
O2421      C2430   1.275       .  A
O2422      C2432   1.269       .  A
O2423      C2431   1.277       .  A
O2424      C2433   1.273       .  A
O2425      C2434   1.276       .  A
O2426      C2433   1.277       .  A
O2427      C2434   1.276       .  A
O2428      C2435   1.276       .  A
O2429      C2435   1.270       .  A
C2430      C3520   1.473       .  S
C2431      C3535   1.495       .  S
C2432      C3451   1.480       .  S
C2433      C3563   1.480       .  S
C2434      C3591   1.483       .  S
C2435      C3492   1.493       .  S
Zn2436     O3646   1.956   1_545  S
Zn2436     O2441   2.045       .  S
Zn2436     O3658   2.013   1_545  S
Zn2437     O2440   1.936       .  S
Zn2437     O3650   1.994       .  S
Zn2437     O2448   1.997       .  S
Zn2438     O2443   2.021       .  S
Zn2438     O2446   2.019       .  S
Zn2438     O3655   1.997   1_545  S
Zn2439     O2440   1.965       .  S
Zn2439     O2450   2.030       .  S
Zn2439     O2451   1.997       .  S
O2440     Zn3642   1.956       .  S
O2441      C2453   1.278       .  A
O2442      C2454   1.270       .  A
O2443      C2455   1.274       .  A
O2444     Zn3643   1.995   1_545  S
O2444      C2453   1.271       .  A
O2445      C2455   1.273       .  A
O2446      C2454   1.275       .  A
O2447      C2456   1.272       .  A
O2448      C2457   1.271       .  A
O2449     Zn3644   1.996       .  S
O2449      C2456   1.271       .  A
O2450      C2457   1.275       .  A
O2451      C2458   1.272       .  A
O2452     Zn3642   2.013       .  S
O2452      C2458   1.275       .  A
C2453      C3395   1.490       .  S
C2454      C3423   1.473       .  S
C2455      C3479   1.497       .  S
C2456      C3464   1.480       .  S
C2457      C3380   1.488       .  S
C2458      C3507   1.483       .  S
C2459      H2460   1.110       .  S
C2459      C2465   1.561       .  S
C2459      C2464   1.559       .  S
C2459      C2463   1.555       .  S
C2461      H2462   1.112       .  S
C2461      C2467   1.517       .  S
C2461      C2466   1.527       .  S
C2461      C2468   1.518       .  S
C2463      C2466   1.379       .  D
C2463      C3283   1.503       .  S
C2464      C2467   1.372       .  D
C2464      C3311   1.491       .  S
C2465      C2468   1.379       .  D
C2465      C3339   1.506       .  S
C2466      C3227   1.488       .  S
C2467      C3199   1.481       .  S
C2468      C3255   1.481       .  S
C2469      H2470   1.110       .  S
C2469      C3680   1.560   1_545  S
C2471      H2472   1.111       .  S
C2471      C3683   1.525   1_445  S
C2473      C2476   1.373       .  D
C2473      C3352   1.493       .  S
C2474      C3675   1.560       .  S
C2474      C2477   1.378       .  D
C2474      C3324   1.505       .  S
C2475      C2478   1.371       .  D
C2475      C3296   1.495       .  S
C2476      C3184   1.484       .  S
C2477      C3677   1.525   1_655  S
C2477      C3115   1.483       .  S
C2478      C3143   1.481       .  S
C2479      H2480   1.109       .  S
C2479      C2485   1.568       .  S
C2479      C2484   1.555       .  S
C2479      C2483   1.567       .  S
C2481      H2482   1.111       .  S
C2481      C2487   1.525       .  S
C2481      C2486   1.515       .  S
C2481      C2488   1.522       .  S
C2483      C2486   1.379       .  D
C2483      C3100   1.507       .  S
C2484      C2487   1.367       .  D
C2484      C3031   1.500       .  S
C2485      C2488   1.379       .  D
C2485      C3072   1.507       .  S
C2486      C3003   1.484       .  S
C2487      C2960   1.473       .  S
C2488      C2975   1.491       .  S
C2489      H2490   1.110       .  S
C2489      C2495   1.569       .  S
C2489      C2494   1.571       .  S
C2489      C2493   1.550       .  S
C2491      H2492   1.105       .  S
C2491      C2497   1.533       .  S
C2491      C2496   1.538       .  S
C2491      C2498   1.518       .  S
C2493      C2496   1.369       .  D
C2493      C3087   1.502       .  S
C2494      C2497   1.387       .  D
C2494      C3059   1.520       .  S
C2495      C2498   1.376       .  D
C2495      C3044   1.504       .  S
C2496      C3604   1.481       .  S
C2497      C3576   1.504       .  S
C2498      C3548   1.494       .  S
Zn2499     O2503   1.907       .  S
Zn2499     O2504   1.964       .  S
Zn2499     O2508   1.959       .  S
Zn2499     O2515   1.968       .  S
Zn2500     O2503   1.960       .  S
Zn2500     O2505   2.022       .  S
Zn2500     O2507   2.056       .  S
Zn2500     O2511   2.007       .  S
Zn2501     O2503   1.964       .  S
Zn2501     O2506   2.052       .  S
Zn2501     O2509   2.004       .  S
Zn2501     O2512   2.012       .  S
Zn2502     O2503   1.962       .  S
Zn2502     O2510   2.002       .  S
Zn2502     O2513   2.005       .  S
Zn2502     O2514   2.033       .  S
O2504      C2516   1.268       .  A
O2505      C2517   1.276       .  A
O2506      C2518   1.275       .  A
O2507      C2516   1.276       .  A
O2508      C2518   1.267       .  A
O2509      C2517   1.272       .  A
O2510      C2519   1.272       .  A
O2511      C2520   1.273       .  A
O2512      C2519   1.273       .  A
O2513      C2520   1.273       .  A
O2514      C2521   1.273       .  A
O2515      C2521   1.267       .  A
C2516      C2932   1.492       .  S
C2517      C3016   1.484       .  S
C2518      C2904   1.474       .  S
C2519      C2988   1.468       .  S
C2520      C2947   1.470       .  S
C2521      C2876   1.476       .  S
Zn2522     O3733   2.003       .  S
Zn2522     O2531   2.027       .  S
Zn2522     O2538   1.995       .  S
Zn2523     O2526   1.956       .  S
Zn2523     O2528   2.024       .  S
Zn2523     O2534   2.020       .  S
Zn2524     O2526   1.941       .  S
Zn2524     O2532   1.996       .  S
Zn2524     O3741   2.007   1_545  S
Zn2525     O3732   1.951       .  S
Zn2525     O2533   2.018       .  S
Zn2525     O3742   2.015       .  S
O2526     Zn3731   1.951   1_545  S
O2527     Zn3728   2.003   1_545  S
O2527      C2539   1.271       .  A
O2528      C2540   1.276       .  A
O2529      C2541   1.274       .  A
O2530      C2539   1.272       .  A
O2531      C2541   1.274       .  A
O2532      C2540   1.272       .  A
O2533      C2542   1.274       .  A
O2534      C2543   1.273       .  A
O2535     Zn3730   2.007       .  S
O2535      C2542   1.273       .  A
O2536     Zn3731   2.015   1_545  S
O2536      C2543   1.272       .  A
O2537      C2544   1.272       .  A
O2538      C2544   1.271       .  A
C2539      C2863   1.486       .  S
C2540      C3268   1.473       .  S
C2541      C3212   1.495       .  S
C2542      C3240   1.469       .  S
C2543      C2919   1.492       .  S
C2544      C2891   1.479       .  S
C2545      H2546   1.110       .  S
C2545      C2551   1.526       .  S
C2545      C2550   1.531       .  S
C2545      C2549   1.517       .  S
C2547      H2548   1.109       .  S
C2547      C2553   1.558       .  S
C2547      C2552   1.564       .  S
C2547      C2554   1.553       .  S
C2549      C2552   1.372       .  D
C2549      C3408   1.488       .  S
C2550      C2553   1.382       .  D
C2550      C3436   1.492       .  S
C2551      C2554   1.370       .  D
C2551      C3367   1.475       .  S
C2552      C2779   1.494       .  S
C2553      C2848   1.506       .  S
C2554      C2807   1.498       .  S
C2555      H2556   1.110       .  S
C2555      C3766   1.522       .  S
C2555      C2559   1.529   1_565  S
C2557      H2558   1.109       .  S
C2557      C3769   1.554       .  S
C2557      C2562   1.560   1_565  S
C2559      C2562   1.382       .  D
C2559      C2723   1.495       .  S
C2560      C3761   1.522       .  S
C2560      C2563   1.367       .  D
C2560      C2695   1.477       .  S
C2561      C2564   1.381       .  D
C2561      C2751   1.498       .  S
C2562      C2792   1.505       .  S
C2563      C3763   1.554       .  S
C2563      C2820   1.498       .  S
C2564      C2835   1.507       .  S
Zn2565     O2569   1.968       .  S
Zn2565     O2570   2.027       .  S
Zn2565     O2574   2.015       .  S
Zn2565     O2581   2.023       .  S
Zn2566     O2569   1.935       .  S
Zn2566     O2571   2.004       .  S
Zn2566     O2573   2.006       .  S
Zn2566     O2577   1.987       .  S
Zn2567     O2569   1.952       .  S
Zn2567     O2572   1.990       .  S
Zn2567     O2575   2.022       .  S
Zn2567     O2578   2.017       .  S
Zn2568     O2569   1.948       .  S
Zn2568     O2576   2.008       .  S
Zn2568     O2579   2.010       .  S
Zn2568     O2580   1.993       .  S
O2570      C2582   1.274       .  A
O2571      C2583   1.271       .  A
O2572      C2584   1.272       .  A
O2573      C2582   1.273       .  A
O2574      C2584   1.274       .  A
O2575      C2583   1.275       .  A
O2576      C2585   1.271       .  A
O2577      C2586   1.272       .  A
O2578      C2585   1.272       .  A
O2579      C2586   1.273       .  A
O2580      C2587   1.272       .  A
O2581      C2587   1.273       .  A
C2582      C3156   1.487       .  S
C2583      C3128   1.491       .  S
C2584      C2652   1.468       .  S
C2585      C2611   1.480       .  S
C2586      C3171   1.484       .  S
C2587      C2667   1.475       .  S
Zn2588     O2592   1.937       .  S
Zn2588     O2593   2.001       .  S
Zn2588     O2597   1.998       .  S
Zn2588     O2604   1.997       .  S
Zn2589     O2592   1.962       .  S
Zn2589     O2594   2.004       .  S
Zn2589     O2596   2.046       .  S
Zn2589     O2600   2.013       .  S
Zn2590     O2592   1.965       .  S
Zn2590     O2595   2.022       .  S
Zn2590     O2598   2.016       .  S
Zn2590     O2601   2.027       .  S
Zn2591     O2592   1.953       .  S
Zn2591     O2599   1.998       .  S
Zn2591     O2602   1.993       .  S
Zn2591     O2603   2.021       .  S
O2593      C2605   1.271       .  A
O2594      C2606   1.273       .  A
O2595      C2607   1.275       .  A
O2596      C2605   1.277       .  A
O2597      C2607   1.272       .  A
O2598      C2606   1.274       .  A
O2599      C2608   1.271       .  A
O2600      C2609   1.273       .  A
O2601      C2608   1.274       .  A
O2602      C2609   1.271       .  A
O2603      C2610   1.274       .  A
O2604      C2610   1.272       .  A
C2605      C2764   1.491       .  S
C2606      C2624   1.479       .  S
C2607      C2708   1.486       .  S
C2608      C2680   1.485       .  S
C2609      C2639   1.475       .  S
C2610      C2736   1.482       .  S
C2611      C2612   1.416       .  A
C2611      C2616   1.405       .  A
C2612      C2613   1.404       .  A
C2612      N2617   1.438       .  S
C2613      C2614   1.398       .  A
C2613      H2618   1.084       .  S
C2614      C2619   1.475       .  S
C2614      C2615   1.409       .  A
C2615      C2616   1.406       .  A
C2615      N2620   1.438       .  S
C2616      H2621   1.084       .  S
N2617      H2637   1.046       .  S
N2617      H2638   1.046       .  S
C2619      C2622   1.397       .  A
C2619      C2626   1.409   1_556  A
N2620      H2635   1.045       .  S
N2620      H2636   1.045       .  S
C2622      C2623   1.402   1_556  A
C2622      H2627   1.084       .  S
C2623      C2624   1.416       .  A
C2623      N2628   1.439       .  S
C2624      C2625   1.405       .  A
C2625      C2626   1.406       .  A
C2625      H2629   1.084       .  S
C2626      N2630   1.438       .  S
N2628      H2631   1.046   1_554  S
N2628      H2632   1.046       .  S
N2630      H2633   1.046       .  S
N2630      H2634   1.044   1_554  S
C2639      C2640   1.411       .  A
C2639      C2644   1.407       .  A
C2640      C2641   1.403       .  A
C2640      N2645   1.437       .  S
C2641      C2642   1.400   1_554  A
C2641      H3852   1.084   1_545  S
C2642      C3853   1.468   1_545  S
C2642      C2643   1.405       .  A
C2643      C2644   1.402   1_556  A
C2643      N2648   1.438       .  S
C2644      H2649   1.084       .  S
N2645      H2665   1.045       .  S
N2645      H2666   1.046       .  S
H2646      C3847   1.084       .  S
C2647      C3848   1.468       .  S
C2647      C2650   1.402       .  A
C2647      C2654   1.405       .  A
N2648      H2663   1.046       .  S
N2648      H2664   1.045       .  S
C2650      C2651   1.405       .  A
C2650      H3861   1.084       .  S
C2651      C2652   1.409       .  A
C2651      N2656   1.437       .  S
C2652      C2653   1.403       .  A
C2653      C2654   1.399       .  A
C2653      H2657   1.084       .  S
C2654      N2658   1.438       .  S
H2655      C3856   1.084       .  S
N2656      H2659   1.046       .  S
N2656      H2660   1.045       .  S
N2658      H2661   1.045       .  S
N2658      H2662   1.045       .  S
C2667      C2668   1.412       .  A
C2667      C2672   1.403       .  A
C2668      C2669   1.410       .  A
C2668      N2673   1.437       .  S
C2669      C2670   1.406       .  A
C2669      H2674   1.084       .  S
C2670      C2671   1.408       .  A
C2671      C2672   1.398       .  A
C2671      N2676   1.438       .  S
C2672      H2677   1.084       .  S
N2673      H2693   1.045       .  S
N2673      H2694   1.046       .  S
C2675      C2678   1.400       .  A
C2675      C2682   1.409   1_556  A
N2676      H2691   1.046       .  S
C2678      C2679   1.402   1_556  A
C2678      H2683   1.084       .  S
C2679      C2680   1.418       .  A
C2679      N2684   1.439       .  S
C2680      C2681   1.407       .  A
C2681      C2682   1.408       .  A
C2681      H2685   1.083       .  S
N2684      H2687   1.046   1_554  S
N2684      H2688   1.045       .  S
N2686      H2689   1.045       .  S
N2686      H2690   1.046       .  S
C2695      C2696   1.413       .  A
C2695      C2700   1.399       .  A
C2696      C2697   1.402       .  A
C2696      N2701   1.437       .  S
C2697      C2698   1.400       .  A
C2697      H2702   1.084       .  S
C2698      C2703   1.475       .  S
C2698      C2699   1.409       .  A
C2699      C2700   1.403       .  A
C2699      N2704   1.437       .  S
N2701      H2721   1.041       .  S
N2701      H2722   1.045       .  S
C2703      C2706   1.400       .  A
C2703      C2710   1.407       .  A
N2704      H2720   1.046       .  S
C2706      C2707   1.404       .  A
C2706      H2711   1.084       .  S
C2707      C2708   1.416       .  A
C2707      N2712   1.438       .  S
C2708      C2709   1.409       .  A
C2709      C2710   1.404       .  A
C2709      H2713   1.083       .  S
C2710      N2714   1.439       .  S
N2712      H2715   1.046       .  S
N2712      H2716   1.046       .  S
N2714      H2717   1.046       .  S
N2714      H2718   1.045       .  S
C2723      C2724   1.416       .  A
C2723      C2728   1.405       .  A
C2724      C2725   1.406       .  A
C2724      N2729   1.437       .  S
C2725      C2726   1.401       .  A
C2725      H2730   1.084       .  S
C2726      C2731   1.475       .  S
C2726      C2727   1.404       .  A
C2727      C2728   1.400       .  A
C2727      N2732   1.438       .  S
C2728      H3939   1.080   1_545  S
N2729      H2749   1.044   1_655  S
N2729      H2750   1.045       .  S
C2731      C2734   1.401       .  A
C2731      C2738   1.405       .  A
N2732      H3953   1.045   1_545  S
N2732      H2748   1.046       .  S
H2733      C3934   1.080       .  S
C2734      C2735   1.405       .  A
C2734      H2739   1.084       .  S
C2735      C2736   1.415       .  A
C2735      N2740   1.438       .  S
C2736      C2737   1.407       .  A
C2737      C2738   1.402       .  A
C2737      H2741   1.084       .  S
C2738      N2742   1.438       .  S
N2740      H2743   1.046       .  S
N2740      H2744   1.046       .  S
N2742      H2745   1.046       .  S
N2742      H2746   1.045       .  S
H2747      N3938   1.045       .  S
C2751      C2752   1.415       .  A
C2751      C2756   1.407       .  A
C2752      C2753   1.402       .  A
C2752      N2757   1.436       .  S
C2753      C2754   1.397       .  A
C2753      H2758   1.084       .  S
C2754      C2759   1.483       .  S
C2754      C2755   1.411       .  A
C2755      C2756   1.410       .  A
C2755      N2760   1.437       .  S
C2756      H2761   1.083       .  S
N2757      H2777   1.044       .  S
N2757      H2778   1.045       .  S
C2759      C2762   1.398       .  A
C2759      C2766   1.410       .  A
N2760      H2775   1.046       .  S
N2760      H2776   1.046       .  S
C2762      C2763   1.406       .  A
C2762      H2767   1.084       .  S
C2763      C2764   1.419       .  A
C2763      N2768   1.438       .  S
C2764      C2765   1.407       .  A
C2765      C2766   1.409       .  A
C2765      H2769   1.083       .  S
C2766      N2770   1.438       .  S
N2768      H2771   1.045       .  S
N2768      H2772   1.046       .  S
N2770      H2773   1.045       .  S
N2770      H2774   1.046       .  S
C2779      C2780   1.408       .  A
C2779      C2784   1.406       .  A
C2780      C2781   1.410       .  A
C2780      N2785   1.434       .  S
C2781      C2782   1.406       .  A
C2781      H2786   1.084       .  S
C2782      C2787   1.492       .  S
C2782      C2783   1.418       .  A
C2783      C2784   1.404       .  A
C2783      N2788   1.438       .  S
C2784      H2789   1.084       .  S
N2785      H2805   1.045       .  S
N2785      H2806   1.046       .  S
C2787      C2790   1.406       .  A
C2787      C2794   1.407       .  A
N2788      H2803   1.045       .  S
N2788      H2804   1.044       .  S
C2790      C2791   1.410       .  A
C2790      H2795   1.084       .  S
C2791      C2792   1.421       .  A
C2792      C2793   1.411       .  A
C2793      C2794   1.406       .  A
C2793      H4003   1.083   1_545  S
C2794      N2798   1.438       .  S
N2796      H2799   1.046       .  S
N2796      H2800   1.040       .  S
H2797      C3999   1.083       .  S
N2798      H4007   1.046       .  S
N2798      H2802   1.043       .  S
H2801      N4004   1.046       .  S
C2807      C2808   1.408       .  A
C2807      C2812   1.401       .  A
C2808      C2809   1.406       .  A
C2808      N2813   1.432       .  S
C2809      C2810   1.410       .  A
C2809      H2814   1.081       .  S
C2810      C2815   1.516       .  S
C2810      C2811   1.421       .  A
C2811      C2812   1.412       .  A
C2811      N2816   1.432       .  S
C2812      H2817   1.078       .  S
N2813      H2833   1.044       .  S
N2813      H2834   1.046       .  S
C2815      C2818   1.411       .  A
C2815      C2822   1.421       .  A
N2816      H2831   1.046       .  S
N2816      H2832   1.046       .  S
C2818      C2819   1.411       .  A
C2818      H2823   1.082       .  S
C2819      C2820   1.408       .  A
C2820      C2821   1.401       .  A
C2821      C2822   1.412       .  A
C2821      H2825   1.082       .  S
C2822      N2826   1.438       .  S
N2824      H2827   1.045       .  S
N2824      H2828   1.046       .  S
N2826      H2829   1.046       .  S
N2826      H2830   1.045       .  S
C2835      C2836   1.413       .  A
C2835      C2840   1.408       .  A
C2836      C2837   1.416       .  A
C2836      N4047   1.433   1_545  S
C2837      C2838   1.406       .  A
C2837      H2842   1.084       .  S
C2838      C2843   1.498       .  S
C2838      C2839   1.411       .  A
C2839      C2840   1.410       .  A
C2839      N2844   1.437       .  S
C2840      H2845   1.084       .  S
N2841      C4042   1.433       .  S
N2841      H2861   1.045       .  S
N2841      H2862   1.045       .  S
C2843      C2846   1.407       .  A
C2843      C2850   1.409       .  A
N2844      H2859   1.046       .  S
N2844      H2860   1.044       .  S
C2846      C2847   1.416       .  A
C2846      H2851   1.084       .  S
C2847      C2848   1.413       .  A
C2847      N2852   1.437       .  S
C2848      C2849   1.410       .  A
C2849      C2850   1.409       .  A
C2849      H2853   1.084       .  S
C2850      N2854   1.437       .  S
N2852      H2855   1.045       .  S
N2852      H2856   1.044       .  S
N2854      H2857   1.045       .  S
N2854      H2858   1.046       .  S
C2863      C2864   1.416       .  A
C2863      C2868   1.408       .  A
C2864      C2865   1.401       .  A
C2864      N4075   1.432       .  S
C2865      C2866   1.400       .  A
C2865      H2870   1.084       .  S
C2866      C2871   1.478       .  S
C2866      C2867   1.407       .  A
C2867      C2868   1.401       .  A
C2867      N2872   1.438       .  S
C2868      H2873   1.083   1_655  S
N2869      C4070   1.432       .  S
N2869      H2889   1.046       .  S
N2869      H2890   1.045       .  S
C2871      C2874   1.399       .  A
C2871      C2878   1.410       .  A
N2872      H2888   1.045   1_655  S
C2874      C2875   1.398       .  A
C2874      H2879   1.084       .  S
C2875      C2876   1.414       .  A
C2875      N2880   1.439       .  S
C2876      C2877   1.404       .  A
C2877      C2878   1.407       .  A
C2877      H2881   1.084       .  S
C2878      N2882   1.437       .  S
N2880      H2883   1.045       .  S
N2880      H2884   1.046       .  S
N2882      H2885   1.045       .  S
N2882      H2886   1.046       .  S
C2891      C2892   1.418       .  A
C2891      C2896   1.405       .  A
C2892      C2893   1.402       .  A
C2892      N2897   1.439       .  S
C2893      C2894   1.399       .  A
C2893      H2898   1.084       .  S
C2894      C2899   1.476       .  S
C2894      C2895   1.408       .  A
C2895      C2896   1.403       .  A
C2895      N2900   1.438       .  S
C2896      H2901   1.084       .  S
N2897      H2917   1.046       .  S
N2897      H2918   1.045       .  S
C2899      C2902   1.405       .  A
C2899      C2906   1.406       .  A
N2900      H2915   1.046       .  S
N2900      H2916   1.046       .  S
C2902      C2903   1.409       .  A
C2902      H2907   1.084       .  S
C2903      C2904   1.410       .  A
C2903      N2908   1.437       .  S
C2904      C2905   1.405       .  A
C2905      C2906   1.398       .  A
C2905      H2909   1.084       .  S
C2906      N2910   1.438       .  S
N2908      H2911   1.046       .  S
N2908      H2912   1.046       .  S
N2910      H2913   1.045       .  S
N2910      H2914   1.046       .  S
C2919      C2920   1.417       .  A
C2919      C2924   1.410       .  A
C2920      C2921   1.405       .  A
C2920      N2925   1.438   1_545  S
C2921      C2922   1.400       .  A
C2921      H2926   1.084       .  S
C2922      C2927   1.482       .  S
C2922      C2923   1.407       .  A
C2923      C2924   1.407       .  A
C2923      N2928   1.438       .  S
C2924      H2929   1.083       .  S
N2925      H2945   1.046   1_565  S
N2925      H2946   1.045       .  S
C2927      C2930   1.404       .  A
C2927      C2934   1.405       .  A
N2928      H2943   1.046       .  S
N2928      H2944   1.046       .  S
C2930      C2931   1.412       .  A
C2930      H2935   1.084       .  S
C2931      C2932   1.416       .  A
C2931      N2936   1.437       .  S
C2932      C2933   1.410       .  A
C2933      C2934   1.399       .  A
C2933      H2937   1.083       .  S
C2934      N2938   1.439       .  S
N2936      H2939   1.045       .  S
N2936      H2940   1.046       .  S
N2938      H2941   1.046       .  S
N2938      H2942   1.046       .  S
C2947      C2948   1.412       .  A
C2947      C2952   1.403       .  A
C2948      C2949   1.401       .  A
C2948      N2953   1.438       .  S
C2949      C4156   1.400       .  A
C2949      H2954   1.084       .  S
C2950      C2955   1.475       .  S
C2950      C4155   1.400       .  A
C2950      C2951   1.410       .  A
C2951      C4158   1.403       .  A
C2951      N2956   1.438       .  S
C2952      C4157   1.403       .  A
C2952      H2957   1.084       .  S
N2953      H2973   1.044       .  S
N2953      H2974   1.046       .  S
C2955      C2958   1.403       .  A
C2955      C2962   1.411       .  A
N2956      H2971   1.046       .  S
N2956      H2972   1.046       .  S
C2958      C2959   1.399       .  A
C2958      H2963   1.084       .  S
C2959      C2960   1.404       .  A
C2959      N2964   1.432       .  S
C2960      C2961   1.397       .  A
C2961      C2962   1.400       .  A
C2961      H2965   1.081       .  S
C2962      N2966   1.438       .  S
N2964      H2967   1.046       .  S
N2964      H2968   1.045       .  S
N2966      H2969   1.046       .  S
N2966      H4176   1.045       .  S
H2970      N4172   1.045       .  S
C2975      C2976   1.411       .  A
C2975      C2980   1.407       .  A
C2976      C2977   1.395       .  A
C2976      N2981   1.428       .  S
C2977      C2978   1.395       .  A
C2977      H2982   1.084       .  S
C2978      C2983   1.467       .  S
C2978      C2979   1.406       .  A
C2979      C2980   1.404       .  A
C2979      N2984   1.437       .  S
C2980      H2985   1.083       .  S
N2981      H3001   1.046       .  S
N2981      H3002   1.046       .  S
C2983      C2990   1.406       .  A
N2984      H2999   1.045       .  S
N2984      H3000   1.046       .  S
C2986      C2987   1.403       .  A
C2986      H2991   1.084       .  S
C2987      C2988   1.412       .  A
C2987      N2992   1.438       .  S
C2988      C2989   1.402       .  A
C2989      H2993   1.084       .  S
C2990      N2994   1.438       .  S
N2992      H2995   1.046       .  S
N2992      H2996   1.045       .  S
N2994      H2997   1.046       .  S
N2994      H2998   1.045       .  S
C3003      C3004   1.415       .  A
C3003      C3008   1.403       .  A
C3004      C3005   1.398       .  A
C3004      N3009   1.438       .  S
C3005      C3006   1.403       .  A
C3005      H3010   1.084       .  S
C3006      C3011   1.480       .  S
C3006      C3007   1.409       .  A
C3007      C3008   1.402       .  A
C3007      N3012   1.438       .  S
C3008      H3013   1.080       .  S
N3009      H3029   1.042       .  S
N3009      H3030   1.046       .  S
C3011      C3014   1.401       .  A
C3011      C3018   1.409       .  A
N3012      H3027   1.046       .  S
N3012      H3028   1.046       .  S
C3014      C3015   1.405       .  A
C3014      H3019   1.084       .  S
C3015      C3016   1.418       .  A
C3015      N3020   1.438       .  S
C3016      C3017   1.405       .  A
C3017      C3018   1.403       .  A
C3017      H3021   1.083       .  S
C3018      N3022   1.438       .  S
N3020      H3023   1.046       .  S
N3020      H3024   1.045       .  S
N3022      H3025   1.045       .  S
N3022      H3026   1.046       .  S
C3031      C3032   1.410       .  A
C3031      C3036   1.403       .  A
C3032      C3033   1.418       .  A
C3032      N3037   1.437       .  S
C3033      C3034   1.413       .  A
C3033      H3038   1.083       .  S
C3034      C4245   1.513       .  S
C3034      C3035   1.418       .  A
C3035      C3036   1.407       .  A
C3035      N3040   1.438       .  S
C3036      H3041   1.083       .  S
N3037      H3057   1.045       .  S
N3037      H3058   1.046       .  S
C3039      C4240   1.513   1_545  S
C3039      C3042   1.404       .  A
C3039      C3046   1.420       .  A
N3040      H3055   1.046       .  S
N3040      H4262   1.045       .  S
C3042      C3043   1.400       .  A
C3042      H3047   1.083       .  S
C3043      C3044   1.421       .  A
C3043      N3048   1.438       .  S
C3044      C3045   1.405       .  A
C3045      C3046   1.420       .  A
C3045      H3049   1.083       .  S
C3046      N3050   1.437       .  S
N3048      H3051   1.045       .  S
N3048      H3052   1.041       .  S
N3050      H3053   1.045       .  S
N3050      H3054   1.046       .  S
H3056      N4246   1.045   1_545  S
C3059      C3060   1.429       .  A
C3059      C3064   1.409       .  A
C3060      C3061   1.399       .  A
C3060      N3065   1.430       .  S
C3061      C3062   1.396       .  A
C3062      C3063   1.416       .  A
C3063      C3064   1.422       .  A
C3063      N3068   1.438       .  S
C3064      H3069   1.083       .  S
N3065      H3085   1.045       .  S
N3065      H3086   1.031       .  S
C3067      C3070   1.403       .  A
C3067      C3074   1.415       .  A
N3068      H3083   1.045       .  S
N3068      H3084   1.043       .  S
C3070      C3071   1.409       .  A
C3070      H3075   1.084       .  S
C3071      C3072   1.416       .  A
C3071      N3076   1.438       .  S
C3072      C3073   1.405       .  A
C3073      C3074   1.417       .  A
C3073      H3077   1.078       .  S
C3074      N3078   1.438       .  S
N3076      H3079   1.046       .  S
N3076      H3080   1.045       .  S
N3078      H3081   1.046       .  S
N3078      H3082   1.043       .  S
C3087      C3088   1.407       .  A
C3087      C3092   1.405       .  A
C3088      C3089   1.405       .  A
C3088      N3093   1.426       .  S
C3089      C3090   1.405       .  A
C3089      H3094   1.083       .  S
C3090      C3095   1.509       .  S
C3090      C3091   1.419       .  A
C3091      C3092   1.417       .  A
C3091      N3096   1.437       .  S
C3092      H3097   1.082       .  S
N3093      H3113   1.047       .  S
N3093      H3114   1.043       .  S
C3095      C3098   1.410       .  A
C3095      C3102   1.416       .  A
N3096      H3111   1.046       .  S
N3096      H3112   1.045       .  S
C3098      C3099   1.415       .  A
C3098      H3103   1.083       .  S
C3099      C3100   1.410       .  A
C3099      N3104   1.433       .  S
C3100      C3101   1.408       .  A
C3101      C3102   1.408       .  A
C3101      H3105   1.084       .  S
C3102      N3106   1.438       .  S
N3104      H3107   1.046       .  S
N3104      H3108   1.045       .  S
N3106      H3109   1.046       .  S
N3106      H3110   1.046       .  S
C3115      C3116   1.408       .  A
C3115      C3120   1.403       .  A
C3116      C3117   1.399       .  A
C3116      N3121   1.431       .  S
C3117      C3118   1.401       .  A
C3117      H3122   1.084       .  S
C3118      C3123   1.479       .  S
C3118      C3119   1.410       .  A
C3119      C3120   1.404       .  A
C3119      N3124   1.437       .  S
C3120      H3125   1.083       .  S
N3121      H3141   1.045       .  S
N3121      H3142   1.046       .  S
C3123      C3126   1.399       .  A
C3123      C3130   1.407       .  A
N3124      H3139   1.045       .  S
N3124      H3140   1.047       .  S
C3126      C3127   1.404       .  A
C3126      H3131   1.084       .  S
C3127      C3128   1.420       .  A
C3127      N3132   1.438       .  S
C3128      C3129   1.409       .  A
C3129      C3130   1.405       .  A
C3129      H3133   1.083       .  S
C3130      N3134   1.438       .  S
N3132      H3135   1.046       .  S
N3132      H3136   1.046       .  S
N3134      H3137   1.046       .  S
N3134      H3138   1.045       .  S
C3143      C3144   1.417       .  A
C3143      C3148   1.401       .  A
C3144      C3145   1.399       .  A
C3144      N4355   1.437       .  S
C3145      C3146   1.402       .  A
C3145      H3150   1.084       .  S
C3146      C3151   1.484       .  S
C3146      C3147   1.410       .  A
C3147      C3148   1.405       .  A
C3147      N3152   1.437       .  S
N3149      C4350   1.437   1_545  S
N3149      H3169   1.042       .  S
N3149      H3170   1.045       .  S
C3151      C3154   1.403       .  A
C3151      C3158   1.408       .  A
N3152      H3168   1.046       .  S
C3154      C3155   1.407       .  A
C3154      H3159   1.084       .  S
C3155      C3156   1.417       .  A
C3155      N3160   1.438       .  S
C3156      C3157   1.407       .  A
C3157      C3158   1.404       .  A
C3157      H3161   1.084       .  S
C3158      N3162   1.438       .  S
N3160      H3163   1.046       .  S
N3160      H3164   1.045       .  S
N3162      H3165   1.047       .  S
N3162      H3166   1.044       .  S
C3171      C3172   1.417       .  A
C3171      C3176   1.409       .  A
C3172      C3173   1.404       .  A
C3172      N3177   1.438       .  S
C3173      C3174   1.400       .  A
C3173      H3178   1.084       .  S
C3174      C3179   1.472       .  S
C3174      C3175   1.405       .  A
C3175      C3176   1.400       .  A
C3175      N3180   1.439       .  S
C3176      H3181   1.083       .  S
N3177      H3197   1.046       .  S
N3177      H3198   1.045       .  S
C3179      C3182   1.398       .  A
C3179      C3186   1.408       .  A
N3180      H3195   1.045       .  S
N3180      H3196   1.046       .  S
C3182      C3183   1.398       .  A
C3182      H3187   1.084       .  S
C3183      C3184   1.410       .  A
C3184      C3185   1.401       .  A
C3185      C3186   1.404       .  A
C3185      H3189   1.078       .  S
C3186      N3190   1.438       .  S
N3188      H3191   1.045       .  S
N3188      H3192   1.046       .  S
N3190      H3193   1.046       .  S
N3190      H3194   1.045       .  S
C3199      C3200   1.412       .  A
C3199      C3204   1.400       .  A
C3200      C3201   1.400       .  A
C3200      N3205   1.430       .  S
C3201      C3202   1.402       .  A
C3201      H3206   1.084       .  S
C3202      C3207   1.479       .  S
C3202      C3203   1.411       .  A
C3203      C3204   1.397       .  A
C3203      N3208   1.432       .  S
C3204      H3209   1.083       .  S
N3205      H3225   1.042       .  S
N3205      H3226   1.046       .  S
C3207      C3210   1.400       .  A
C3207      C3214   1.405       .  A
N3208      H3223   1.045       .  S
N3208      H3224   1.045       .  S
C3210      C3211   1.407       .  A
C3210      H3215   1.084       .  S
C3211      C3212   1.419       .  A
C3211      N3216   1.438       .  S
C3212      C3213   1.411       .  A
C3213      C3214   1.406       .  A
C3213      H3217   1.083       .  S
C3214      N3218   1.438       .  S
N3216      H4425   1.046       .  S
N3216      H4426   1.045       .  S
N3218      H3221   1.046       .  S
N3218      H3222   1.045       .  S
H3219      N4422   1.046       .  S
H3220      N4422   1.045       .  S
C3227      C3228   1.413       .  A
C3227      C3232   1.403       .  A
C3228      C3229   1.403       .  A
C3228      N3233   1.437       .  S
C3229      C3230   1.400       .  A
C3229      H3234   1.084       .  S
C3230      C3235   1.478       .  S
C3230      C3231   1.409       .  A
C3231      C3232   1.404       .  A
C3231      N3236   1.438       .  S
C3232      H3237   1.082       .  S
N3233      H3253   1.045       .  S
N3233      H3254   1.046       .  S
C3235      C3238   1.402       .  A
C3235      C3242   1.410       .  A
N3236      H3251   1.045       .  S
N3236      H3252   1.046       .  S
C3238      C3239   1.403       .  A
C3238      H3243   1.084       .  S
C3239      C3240   1.409       .  A
C3239      N4450   1.438       .  S
C3240      C3241   1.402       .  A
C3241      C3242   1.405       .  A
C3241      H3245   1.084       .  S
C3242      N3246   1.437       .  S
N3244      C4445   1.438   1_545  S
N3244      H3247   1.046       .  S
N3244      H3248   1.046       .  S
N3246      H3249   1.047       .  S
N3246      H3250   1.044       .  S
C3255      C3256   1.419       .  A
C3255      C3260   1.402       .  A
C3256      C3257   1.400       .  A
C3256      N3261   1.438       .  S
C3257      C3258   1.400       .  A
C3257      H3262   1.084       .  S
C3258      C3263   1.470       .  S
C3258      C3259   1.405       .  A
C3259      C3260   1.398       .  A
C3259      N3264   1.438       .  S
C3260      H3265   1.084       .  S
N3261      H3281   1.041       .  S
N3261      H3282   1.047       .  S
C3263      C3266   1.399       .  A
C3263      C3270   1.407       .  A
N3264      H3279   1.046       .  S
N3264      H3280   1.045       .  S
C3266      C3267   1.403       .  A
C3266      H3271   1.084       .  S
C3267      C3268   1.414       .  A
C3267      N3272   1.438       .  S
C3268      C3269   1.403       .  A
C3269      C3270   1.403       .  A
C3269      H3273   1.084       .  S
C3270      N3274   1.438       .  S
N3274      H3277   1.045       .  S
N3274      H3278   1.046       .  S
C3283      C3284   1.411       .  A
C3283      C3288   1.405       .  A
C3284      C3285   1.401       .  A
C3284      N3289   1.433       .  S
C3285      C3286   1.406       .  A
C3285      H3290   1.082       .  S
C3286      C3291   1.512       .  S
C3286      C3287   1.422       .  A
C3287      C3288   1.419       .  A
C3287      N3292   1.437       .  S
C3288      H3293   1.083       .  S
N3289      H3309   1.045       .  S
N3289      H3310   1.045       .  S
C3291      C3294   1.411       .  A
C3291      C3298   1.419       .  A
N3292      H3307   1.045       .  S
N3292      H3308   1.045       .  S
C3294      C3295   1.416       .  A
C3294      H3299   1.083       .  S
C3295      C3296   1.411       .  A
C3296      C3297   1.400       .  A
C3297      C3298   1.408       .  A
C3297      H4507   1.082       .  S
C3298      N3302   1.438       .  S
N3300      H3303   1.045       .  S
N3300      H3304   1.045       .  S
H3301      C4503   1.082   1_545  S
N3302      H4511   1.046       .  S
N3302      H3306   1.045       .  S
H3305      N4508   1.046   1_545  S
C3311      C3312   1.407       .  A
C3311      C3316   1.403       .  A
C3312      C3313   1.405       .  A
C3312      N3317   1.431       .  S
C3313      C3314   1.406       .  A
C3313      H3318   1.083       .  S
C3314      C3319   1.501       .  S
C3314      C3315   1.414       .  A
C3315      C3316   1.412       .  A
C3315      N3320   1.432       .  S
C3316      H3321   1.083       .  S
N3317      H3337   1.045       .  S
N3317      H3338   1.045       .  S
C3319      C3322   1.401       .  A
C3319      C3326   1.417       .  A
N3320      H3335   1.046       .  S
N3320      H3336   1.045       .  S
C3322      C3323   1.401       .  A
C3322      H3327   1.084       .  S
C3323      C3324   1.424       .  A
C3323      N3328   1.436       .  S
C3324      C3325   1.404       .  A
C3325      C3326   1.416       .  A
C3325      H3329   1.082       .  S
C3326      N3330   1.437       .  S
N3328      H4537   1.048       .  S
N3328      H4538   1.036       .  S
N3330      H3333   1.046       .  S
N3330      H3334   1.045       .  S
H3331      N4534   1.048       .  S
H3332      N4534   1.036       .  S
C3339      C3340   1.405       .  A
C3339      C3344   1.406       .  A
C3340      C3341   1.413       .  A
C3340      N3345   1.431       .  S
C3341      C3342   1.416       .  A
C3341      H3346   1.082       .  S
C3342      C3347   1.513       .  S
C3342      C3343   1.417       .  A
C3343      C3344   1.406       .  A
C3343      N3348   1.438       .  S
C3344      H3349   1.083       .  S
N3345      H3365   1.045       .  S
N3345      H3366   1.046       .  S
C3347      C3350   1.414       .  A
C3347      C3354   1.417       .  A
N3348      H3363   1.046       .  S
N3348      H3364   1.046       .  S
C3350      C3351   1.410       .  A
C3350      H3355   1.082       .  S
C3351      C3352   1.404       .  A
C3351      N3356   1.432       .  S
C3352      C3353   1.403       .  A
C3353      C3354   1.408       .  A
C3353      H3357   1.084       .  S
C3354      N3358   1.432       .  S
N3356      H3359   1.045       .  S
N3356      H3360   1.045       .  S
N3358      H3361   1.045       .  S
N3358      H3362   1.046       .  S
C3367      C3368   1.402       .  A
C3367      C3372   1.396       .  A
C3368      C3369   1.403       .  A
C3368      N3373   1.432       .  S
C3369      C3370   1.404       .  A
C3369      H3374   1.084       .  S
C3370      C3375   1.474       .  S
C3370      C3371   1.416       .  A
C3371      C3372   1.395       .  A
C3371      N3376   1.439       .  S
C3372      H3377   1.078       .  S
N3373      H3393   1.046       .  S
N3373      H3394   1.044       .  S
C3375      C3378   1.396       .  A
C3375      C3382   1.409       .  A
N3376      H3391   1.046       .  S
N3376      H3392   1.043       .  S
C3378      C3379   1.401       .  A
C3378      H3383   1.084       .  S
C3379      C3380   1.419       .  A
C3379      N3384   1.438       .  S
C3380      C3381   1.408       .  A
C3381      C3382   1.406       .  A
C3381      H3385   1.083       .  S
C3382      N3386   1.438       .  S
N3386      H3389   1.046       .  S
N3386      H3390   1.044       .  S
C3395      C3396   1.420       .  A
C3395      C3400   1.406       .  A
C3396      C3397   1.406       .  A
C3396      N3401   1.438       .  S
C3397      C3398   1.399       .  A
C3397      H3402   1.084       .  S
C3398      C3403   1.481       .  S
C3398      C3399   1.409       .  A
C3399      C3400   1.406       .  A
C3399      N3404   1.438       .  S
C3400      H3405   1.083       .  S
N3401      H4627   1.045   1_545  S
N3401      H4628   1.046       .  S
C3403      C3406   1.400       .  A
C3403      C3410   1.412       .  A
N3404      H3419   1.046       .  S
N3404      H3420   1.046       .  S
C3406      C3407   1.403       .  A
C3406      H3411   1.084       .  S
C3407      C3408   1.410       .  A
C3407      N3412   1.437       .  S
C3408      C3409   1.404       .  A
C3409      C3410   1.408       .  A
C3409      H3413   1.083       .  S
C3410      N3414   1.437       .  S
N3412      H3415   1.045       .  S
N3412      H3416   1.045       .  S
N3414      H3417   1.046       .  S
N3414      H3418   1.045       .  S
H3421      N4607   1.045       .  S
H3422      N4607   1.046       .  S
C3423      C3424   1.415       .  A
C3423      C3428   1.403       .  A
C3424      C3425   1.403       .  A
C3424      N3429   1.438       .  S
C3425      C3426   1.399       .  A
C3425      H3430   1.084       .  S
C3426      C3431   1.469       .  S
C3426      C3427   1.407       .  A
C3427      C3428   1.401       .  A
C3427      N3432   1.438       .  S
C3428      H3433   1.084       .  S
N3429      H3449   1.046       .  S
N3429      H3450   1.046       .  S
C3431      C3434   1.394       .  A
C3431      C3438   1.407       .  A
N3432      H3447   1.046       .  S
N3432      H3448   1.046       .  S
C3434      C3435   1.394       .  A
C3434      H3439   1.085       .  S
C3435      C3436   1.410       .  A
C3435      N3440   1.426       .  S
C3436      C3437   1.408       .  A
C3437      C3438   1.405       .  A
C3437      H3441   1.083       .  S
C3438      N3442   1.437       .  S
N3440      H3443   1.046       .  S
N3440      H3444   1.046       .  S
N3442      H3445   1.046       .  S
N3442      H3446   1.045       .  S
C3451      C3452   1.413       .  A
C3451      C3456   1.406       .  A
C3452      C3453   1.409       .  A
C3452      N3457   1.437       .  S
C3453      C3454   1.403       .  A
C3453      H3458   1.084       .  S
C3454      C3459   1.474       .  S
C3454      C3455   1.404       .  A
C3455      C3456   1.399       .  A
C3455      N3460   1.438       .  S
C3456      H3461   1.084       .  S
N3457      H3477   1.045       .  S
N3457      H3478   1.046       .  S
C3459      C3462   1.397       .  A
C3459      C3466   1.408       .  A
N3460      H3475   1.045       .  S
N3460      H3476   1.046       .  S
C3462      C3463   1.402       .  A
C3462      H3467   1.084       .  S
C3463      C3464   1.418       .  A
C3463      N4674   1.439       .  S
C3464      C3465   1.406       .  A
C3465      C3466   1.405       .  A
C3465      H3469   1.084       .  S
C3466      N3470   1.438       .  S
N3468      C4669   1.439   1_545  S
N3468      H3471   1.045       .  S
N3468      H3472   1.046       .  S
N3470      H3473   1.046       .  S
N3470      H3474   1.045       .  S
C3479      C3480   1.421       .  A
C3479      C3484   1.409       .  A
C3480      C3481   1.410       .  A
C3480      N3485   1.438       .  S
C3481      C3482   1.400       .  A
C3481      H3486   1.084       .  S
C3482      C3487   1.487       .  S
C3482      C3483   1.408       .  A
C3483      C3484   1.407       .  A
C3483      N3488   1.438       .  S
C3484      H3489   1.083       .  S
C3487      C3490   1.403       .  A
C3487      C3494   1.407       .  A
N3488      H3503   1.045       .  S
N3488      H3504   1.046       .  S
C3490      C3491   1.410       .  A
C3490      H3495   1.084       .  S
C3491      C3492   1.415       .  A
C3491      N3496   1.437       .  S
C3492      C3493   1.411       .  A
C3493      C3494   1.407       .  A
C3493      H3497   1.084       .  S
C3494      N3498   1.438       .  S
N3496      H3499   1.046       .  S
N3496      H3500   1.045       .  S
N3498      H3501   1.046       .  S
N3498      H3502   1.046       .  S
C3507      C3508   1.420       .  A
C3507      C3512   1.405       .  A
C3508      C3509   1.403       .  A
C3508      N3513   1.439       .  S
C3509      C3510   1.398       .  A
C3509      H3514   1.084       .  S
C3510      C3515   1.478       .  S
C3510      C3511   1.409       .  A
C3511      C3512   1.404       .  A
C3511      N3516   1.438       .  S
C3512      H3517   1.084       .  S
N3513      H3533   1.046       .  S
N3513      H3534   1.046       .  S
C3515      C3518   1.404       .  A
C3515      C3522   1.408       .  A
N3516      H3531   1.046       .  S
N3516      H3532   1.045       .  S
C3518      C3519   1.407       .  A
C3518      H3523   1.084       .  S
C3519      C3520   1.410       .  A
C3519      N3524   1.437       .  S
C3520      C3521   1.403       .  A
C3521      C3522   1.401       .  A
C3521      H3525   1.084       .  S
C3522      N3526   1.438       .  S
N3524      H3527   1.046       .  S
N3524      H3528   1.045       .  S
N3526      H3529   1.045       .  S
N3526      H3530   1.046       .  S
C3535      C3536   1.419       .  A
C3535      C3540   1.408       .  A
C3536      C3537   1.410       .  A
C3536      N3541   1.438       .  S
C3537      C4744   1.403       .  A
C3537      H3542   1.084       .  S
C3538      C3543   1.490       .  S
C3538      C4743   1.403       .  A
C3538      C4745   1.409   1_545  A
C3539      C4744   1.409       .  A
C3539      C3540   1.408       .  A
C3539      N4750   1.438       .  S
C3540      H3545   1.083       .  S
N3541      H3561   1.045       .  S
N3541      H3562   1.046       .  S
C3543      C3546   1.404       .  A
C3543      C3550   1.420       .  A
N3544      C4745   1.438       .  S
N3544      H4765   1.045       .  S
N3544      H3560   1.046       .  S
C3546      C3547   1.405       .  A
C3546      H3551   1.084       .  S
C3547      C3548   1.410       .  A
C3547      N3552   1.432       .  S
C3548      C3549   1.402       .  A
C3549      C3550   1.403       .  A
C3549      H3553   1.084       .  S
C3550      N3554   1.438       .  S
N3552      H3555   1.045       .  S
N3552      H3556   1.046       .  S
N3554      H3557   1.045       .  S
N3554      H4764   1.043   1_545  S
H3558      N4760   1.043       .  S
H3559      N4750   1.046       .  S
C3563      C3564   1.412       .  A
C3563      C3568   1.407       .  A
C3564      C3565   1.403       .  A
C3564      N3569   1.438       .  S
C3565      H3570   1.084       .  S
C3566      C3571   1.473       .  S
C3566      C3567   1.406   1_655  A
C3567      N3572   1.438   1_455  S
C3568      H3573   1.084       .  S
N3569      H3589   1.045       .  S
N3569      H3590   1.046       .  S
C3571      C3574   1.396       .  A
C3571      C3578   1.405       .  A
N3572      H3587   1.045       .  S
N3572      H3588   1.045       .  S
C3574      C3575   1.401       .  A
C3574      H3579   1.084       .  S
C3575      C3576   1.419       .  A
C3575      N3580   1.430       .  S
C3576      C3577   1.409       .  A
C3577      C3578   1.404       .  A
C3577      H3581   1.082       .  S
C3578      N3582   1.437       .  S
N3580      H3583   1.046       .  S
N3580      H3584   1.045       .  S
N3582      H3585   1.046       .  S
C3591      C3592   1.414       .  A
C3591      C3596   1.406       .  A
C3592      C3593   1.406       .  A
C3592      N3597   1.437       .  S
C3593      C3594   1.402       .  A
C3593      H3598   1.084       .  S
C3594      C3599   1.481       .  S
C3594      C3595   1.409       .  A
C3595      C3596   1.403       .  A
C3595      N3600   1.438       .  S
C3596      H3601   1.084       .  S
N3597      H3617   1.046       .  S
N3597      H3618   1.045       .  S
C3599      C3602   1.400       .  A
C3599      C3606   1.417       .  A
N3600      H3615   1.046       .  S
N3600      H3616   1.045       .  S
C3602      C3603   1.395       .  A
C3602      H3607   1.085       .  S
C3603      C3604   1.413       .  A
C3603      N3608   1.435       .  S
C3604      C3605   1.403       .  A
C3605      C3606   1.402       .  A
C3605      H3609   1.083       .  S
C3606      N3610   1.437       .  S
N3608      H3611   1.051       .  S
N3608      H3612   1.031       .  S
N3610      H3613   1.046       .  S
N3610      H3614   1.043       .  S
Zn3619     O3623   1.919       .  S
Zn3619     O3624   1.981       .  S
Zn3619     O3628   1.964       .  S
Zn3619     O3635   1.997       .  S
Zn3620     O3623   1.961       .  S
Zn3620     O3625   2.032       .  S
Zn3620     O3627   2.039       .  S
Zn3620     O3631   2.020       .  S
Zn3621     O3623   1.963       .  S
Zn3621     O3626   2.061       .  S
Zn3621     O3629   2.043       .  S
Zn3621     O3632   2.025       .  S
Zn3622     O3623   1.964       .  S
Zn3622     O3630   2.007       .  S
Zn3622     O3633   2.027       .  S
Zn3622     O3634   2.053       .  S
O3624      C3636   1.270       .  A
O3625      C3637   1.275       .  A
O3626      C3638   1.277       .  A
O3627      C3636   1.275       .  A
O3628      C3638   1.269       .  A
O3629      C3637   1.277       .  A
O3630      C3639   1.273       .  A
O3631      C3640   1.276       .  A
O3632      C3639   1.277       .  A
O3633      C3640   1.276       .  A
O3634      C3641   1.276       .  A
O3635      C3641   1.270       .  A
C3636      C4726   1.473       .  S
C3637      C4741   1.495       .  S
C3638      C4657   1.480       .  S
C3639      C4769   1.480       .  S
C3640      C4797   1.483       .  S
C3641      C4698   1.493       .  S
Zn3642     O3647   2.045       .  S
Zn3643     O3646   1.936       .  S
Zn3643     O3654   1.997       .  S
Zn3644     O3649   2.021       .  S
Zn3644     O3652   2.019       .  S
Zn3645     O3646   1.965       .  S
Zn3645     O3656   2.029       .  S
Zn3645     O3657   1.997       .  S
O3647      C3659   1.278       .  A
O3648      C3660   1.270       .  A
O3649      C3661   1.274       .  A
O3650      C3659   1.271       .  A
O3651      C3661   1.273       .  A
O3652      C3660   1.275       .  A
O3653      C3662   1.272       .  A
O3654      C3663   1.271       .  A
O3655      C3662   1.271       .  A
O3656      C3663   1.275       .  A
O3657      C3664   1.272       .  A
O3658      C3664   1.275       .  A
C3659      C4601   1.490       .  S
C3660      C4629   1.473       .  S
C3661      C4685   1.497       .  S
C3662      C4670   1.481       .  S
C3663      C4586   1.488       .  S
C3664      C4713   1.483       .  S
C3665      H3666   1.110       .  S
C3665      C3671   1.561       .  S
C3665      C3670   1.559       .  S
C3665      C3669   1.556       .  S
C3667      H3668   1.112       .  S
C3667      C3673   1.517       .  S
C3667      C3672   1.527       .  S
C3667      C3674   1.518       .  S
C3669      C3672   1.379       .  D
C3669      C4489   1.503       .  S
C3670      C3673   1.372       .  D
C3670      C4517   1.491       .  S
C3671      C3674   1.379       .  D
C3671      C4545   1.505       .  S
C3672      C4433   1.487       .  S
C3673      C4405   1.481       .  S
C3674      C4461   1.481       .  S
C3675      H3676   1.110       .  S
C3677      H3678   1.112       .  S
C3679      C3682   1.374       .  D
C3679      C4558   1.493       .  S
C3680      C3683   1.378       .  D
C3680      C4530   1.506       .  S
C3681      C3684   1.371       .  D
C3681      C4502   1.495       .  S
C3682      C4390   1.484       .  S
C3683      C4321   1.483       .  S
C3684      C4349   1.480       .  S
C3685      H3686   1.109       .  S
C3685      C3691   1.568       .  S
C3685      C3690   1.555       .  S
C3685      C3689   1.567       .  S
C3687      H3688   1.111       .  S
C3687      C3693   1.525       .  S
C3687      C3692   1.515       .  S
C3687      C3694   1.522       .  S
C3689      C3692   1.379       .  D
C3689      C4306   1.507       .  S
C3690      C3693   1.367       .  D
C3690      C4237   1.500       .  S
C3691      C3694   1.379       .  D
C3691      C4278   1.507       .  S
C3692      C4209   1.484       .  S
C3693      C4166   1.472       .  S
C3694      C4181   1.491       .  S
C3695      H3696   1.110       .  S
C3695      C3701   1.569       .  S
C3695      C3700   1.571       .  S
C3695      C3699   1.550       .  S
C3697      H3698   1.105       .  S
C3697      C3703   1.533       .  S
C3697      C3702   1.538       .  S
C3697      C3704   1.518       .  S
C3699      C3702   1.369       .  D
C3699      C4293   1.502       .  S
C3700      C3703   1.387       .  D
C3700      C4265   1.520       .  S
C3701      C3704   1.376       .  D
C3701      C4250   1.504       .  S
C3702      C4810   1.481       .  S
C3703      C4782   1.504       .  S
C3704      C4754   1.494       .  S
Zn3705     O3709   1.907       .  S
Zn3705     O3710   1.965       .  S
Zn3705     O3714   1.960       .  S
Zn3705     O3721   1.968       .  S
Zn3706     O3709   1.960       .  S
Zn3706     O3711   2.022       .  S
Zn3706     O3713   2.056       .  S
Zn3706     O3717   2.007       .  S
Zn3707     O3709   1.964       .  S
Zn3707     O3712   2.052       .  S
Zn3707     O3715   2.004       .  S
Zn3707     O3718   2.011       .  S
Zn3708     O3709   1.961       .  S
Zn3708     O3716   2.002       .  S
Zn3708     O3719   2.006       .  S
Zn3708     O3720   2.033       .  S
O3710      C3722   1.268       .  A
O3711      C3723   1.276       .  A
O3712      C3724   1.275       .  A
O3713      C3722   1.276       .  A
O3714      C3724   1.267       .  A
O3715      C3723   1.272       .  A
O3716      C3725   1.272       .  A
O3717      C3726   1.273       .  A
O3718      C3725   1.273       .  A
O3719      C3726   1.273       .  A
O3720      C3727   1.273       .  A
O3721      C3727   1.267       .  A
C3722      C4138   1.491       .  S
C3723      C4222   1.484       .  S
C3724      C4110   1.474       .  S
C3725      C4194   1.468       .  S
C3726      C4153   1.470       .  S
C3727      C4082   1.475       .  S
Zn3728     O3737   2.028       .  S
Zn3728     O3744   1.995       .  S
Zn3729     O3732   1.956       .  S
Zn3729     O3734   2.024       .  S
Zn3729     O3740   2.020       .  S
Zn3730     O3732   1.941       .  S
Zn3730     O3738   1.996       .  S
Zn3731     O3739   2.018       .  S
O3733      C3745   1.271       .  A
O3734      C3746   1.276       .  A
O3735      C3747   1.274       .  A
O3736      C3745   1.272       .  A
O3737      C3747   1.274       .  A
O3738      C3746   1.272       .  A
O3739      C3748   1.274       .  A
O3740      C3749   1.273       .  A
O3741      C3748   1.273       .  A
O3742      C3749   1.272       .  A
O3743      C3750   1.272       .  A
O3744      C3750   1.271       .  A
C3745      C4069   1.486       .  S
C3746      C4474   1.473       .  S
C3747      C4418   1.495       .  S
C3748      C4446   1.469       .  S
C3749      C4125   1.492       .  S
C3750      C4097   1.479       .  S
C3751      H3752   1.110       .  S
C3751      C3757   1.526       .  S
C3751      C3756   1.531       .  S
C3751      C3755   1.517       .  S
C3753      H3754   1.109       .  S
C3753      C3759   1.559       .  S
C3753      C3758   1.564       .  S
C3753      C3760   1.554       .  S
C3755      C3758   1.372       .  D
C3755      C4614   1.488       .  S
C3756      C3759   1.382       .  D
C3756      C4642   1.492       .  S
C3757      C3760   1.370       .  D
C3757      C4573   1.475       .  S
C3758      C3985   1.494       .  S
C3759      C4054   1.507       .  S
C3760      C4013   1.498       .  S
C3761      H3762   1.110       .  S
C3761      C3765   1.529       .  S
C3763      H3764   1.109       .  S
C3763      C3768   1.560       .  S
C3765      C3768   1.382       .  D
C3765      C3929   1.495       .  S
C3766      C3769   1.367       .  D
C3766      C3901   1.477       .  S
C3767      C3770   1.381       .  D
C3767      C3957   1.498       .  S
C3768      C3998   1.505       .  S
C3769      C4026   1.498       .  S
C3770      C4041   1.507       .  S
Zn3771     O3775   1.968       .  S
Zn3771     O3776   2.026       .  S
Zn3771     O3780   2.014       .  S
Zn3771     O3787   2.022       .  S
Zn3772     O3775   1.935       .  S
Zn3772     O3777   2.005       .  S
Zn3772     O3779   2.007       .  S
Zn3772     O3783   1.988       .  S
Zn3773     O3775   1.953       .  S
Zn3773     O3778   1.990       .  S
Zn3773     O3781   2.022       .  S
Zn3773     O3784   2.016       .  S
Zn3774     O3775   1.949       .  S
Zn3774     O3782   2.008       .  S
Zn3774     O3785   2.011       .  S
Zn3774     O3786   1.994       .  S
O3776      C3788   1.274       .  A
O3777      C3789   1.271       .  A
O3778      C3790   1.272       .  A
O3779      C3788   1.273       .  A
O3780      C3790   1.274       .  A
O3781      C3789   1.275       .  A
O3782      C3791   1.271       .  A
O3783      C3792   1.272       .  A
O3784      C3791   1.272       .  A
O3785      C3792   1.273       .  A
O3786      C3793   1.272       .  A
O3787      C3793   1.272       .  A
C3788      C4362   1.489       .  S
C3789      C4334   1.491       .  S
C3790      C3858   1.467       .  S
C3791      C3817   1.480       .  S
C3792      C4377   1.484       .  S
C3793      C3873   1.475       .  S
Zn3794     O3798   1.937       .  S
Zn3794     O3799   2.001       .  S
Zn3794     O3803   1.999       .  S
Zn3794     O3810   1.997       .  S
Zn3795     O3798   1.962       .  S
Zn3795     O3800   2.005       .  S
Zn3795     O3802   2.046       .  S
Zn3795     O3806   2.014       .  S
Zn3796     O3798   1.965       .  S
Zn3796     O3801   2.023       .  S
Zn3796     O3804   2.016       .  S
Zn3796     O3807   2.027       .  S
Zn3797     O3798   1.954       .  S
Zn3797     O3805   1.998       .  S
Zn3797     O3808   1.993       .  S
Zn3797     O3809   2.021       .  S
O3799      C3811   1.271       .  A
O3800      C3812   1.273       .  A
O3801      C3813   1.275       .  A
O3802      C3811   1.277       .  A
O3803      C3813   1.272       .  A
O3804      C3812   1.274       .  A
O3805      C3814   1.271       .  A
O3806      C3815   1.273       .  A
O3807      C3814   1.274       .  A
O3808      C3815   1.271       .  A
O3809      C3816   1.274       .  A
O3810      C3816   1.272       .  A
C3811      C3970   1.491       .  S
C3812      C3830   1.479       .  S
C3813      C3914   1.486       .  S
C3814      C3886   1.485       .  S
C3815      C3845   1.475       .  S
C3816      C3942   1.482       .  S
C3817      C3818   1.416       .  A
C3817      C3822   1.405       .  A
C3818      C3819   1.404       .  A
C3818      N3823   1.438       .  S
C3819      C3820   1.398       .  A
C3819      H3824   1.084       .  S
C3820      C3825   1.475       .  S
C3820      C3821   1.409       .  A
C3821      C3822   1.406       .  A
C3821      N3826   1.438       .  S
C3822      H3827   1.084       .  S
N3823      H3843   1.046       .  S
N3823      H3844   1.046       .  S
C3825      C3828   1.397       .  A
C3825      C3832   1.409   1_556  A
N3826      H3841   1.045       .  S
N3826      H3842   1.045       .  S
C3828      C3829   1.403   1_556  A
C3828      H3833   1.084       .  S
C3829      C3830   1.416       .  A
C3829      N3834   1.439       .  S
C3830      C3831   1.405       .  A
C3831      C3832   1.406       .  A
C3831      H3835   1.084       .  S
C3832      N3836   1.438       .  S
N3834      H3837   1.046   1_554  S
N3834      H3838   1.046       .  S
N3836      H3839   1.046       .  S
N3836      H3840   1.044   1_554  S
C3845      C3846   1.411       .  A
C3845      C3850   1.407       .  A
C3846      C3847   1.403       .  A
C3846      N3851   1.437       .  S
C3847      C3848   1.400   1_554  A
C3848      C3849   1.405       .  A
C3849      C3850   1.402   1_556  A
C3849      N3854   1.438       .  S
C3850      H3855   1.084       .  S
N3851      H3871   1.045       .  S
N3851      H3872   1.046       .  S
C3853      C3856   1.402   1_565  A
C3853      C3860   1.405       .  A
N3854      H3869   1.046       .  S
N3854      H3870   1.045       .  S
C3856      C3857   1.405   1_545  A
C3857      C3858   1.409       .  A
C3857      N3862   1.437       .  S
C3858      C3859   1.403       .  A
C3859      C3860   1.399       .  A
C3859      H3863   1.084       .  S
C3860      N3864   1.438       .  S
N3862      H3865   1.046   1_565  S
N3862      H3866   1.045       .  S
N3864      H3867   1.045       .  S
N3864      H3868   1.046       .  S
C3873      C3874   1.412       .  A
C3873      C3878   1.403       .  A
C3874      C3875   1.410       .  A
C3874      N3879   1.437       .  S
C3875      C3876   1.406       .  A
C3875      H3880   1.084       .  S
C3876      C3877   1.408       .  A
C3877      C3878   1.398       .  A
C3877      N3882   1.438       .  S
C3878      H3883   1.084       .  S
N3879      H3899   1.045       .  S
N3879      H3900   1.046       .  S
C3881      C3884   1.400       .  A
C3881      C3888   1.409   1_556  A
N3882      H3897   1.046       .  S
C3884      C3885   1.402   1_556  A
C3884      H3889   1.084       .  S
C3885      C3886   1.418       .  A
C3885      N3890   1.439       .  S
C3886      C3887   1.406       .  A
C3887      C3888   1.408       .  A
C3887      H3891   1.083       .  S
N3890      H3893   1.046   1_554  S
N3890      H3894   1.045       .  S
N3892      H3895   1.045       .  S
N3892      H3896   1.046       .  S
C3901      C3902   1.413       .  A
C3901      C3906   1.399       .  A
C3902      C3903   1.403       .  A
C3902      N3907   1.437       .  S
C3903      C3904   1.400       .  A
C3903      H3908   1.084       .  S
C3904      C3909   1.476       .  S
C3904      C3905   1.409       .  A
C3905      C3906   1.403       .  A
C3905      N3910   1.437       .  S
N3907      H3927   1.041       .  S
N3907      H3928   1.045       .  S
C3909      C3912   1.400       .  A
C3909      C3916   1.407       .  A
N3910      H3926   1.046       .  S
C3912      C3913   1.404       .  A
C3912      H3917   1.084       .  S
C3913      C3914   1.416       .  A
C3913      N3918   1.438       .  S
C3914      C3915   1.409       .  A
C3915      C3916   1.404       .  A
C3915      H3919   1.083       .  S
C3916      N3920   1.439       .  S
N3918      H3921   1.046       .  S
N3918      H3922   1.046       .  S
N3920      H3923   1.046       .  S
N3920      H3924   1.045       .  S
C3929      C3930   1.416       .  A
C3929      C3934   1.405       .  A
C3930      C3931   1.406       .  A
C3930      N3935   1.437       .  S
C3931      C3932   1.400       .  A
C3931      H3936   1.084       .  S
C3932      C3937   1.474       .  S
C3932      C3933   1.404       .  A
C3933      C3934   1.400       .  A
C3933      N3938   1.438       .  S
N3935      H3955   1.044   1_655  S
N3935      H3956   1.046       .  S
C3937      C3940   1.401       .  A
C3937      C3944   1.405       .  A
N3938      H3954   1.046       .  S
C3940      C3941   1.405       .  A
C3940      H3945   1.084       .  S
C3941      C3942   1.415       .  A
C3941      N3946   1.438       .  S
C3942      C3943   1.407       .  A
C3943      C3944   1.402       .  A
C3943      H3947   1.084       .  S
C3944      N3948   1.438       .  S
N3946      H3949   1.046       .  S
N3946      H3950   1.046       .  S
N3948      H3951   1.046       .  S
N3948      H3952   1.045       .  S
C3957      C3958   1.415       .  A
C3957      C3962   1.407       .  A
C3958      C3959   1.402       .  A
C3958      N3963   1.436       .  S
C3959      C3960   1.397       .  A
C3959      H3964   1.084       .  S
C3960      C3965   1.483       .  S
C3960      C3961   1.411       .  A
C3961      C3962   1.410       .  A
C3961      N3966   1.437       .  S
C3962      H3967   1.083       .  S
N3963      H3983   1.044       .  S
N3963      H3984   1.045       .  S
C3965      C3968   1.398       .  A
C3965      C3972   1.410       .  A
N3966      H3981   1.046       .  S
N3966      H3982   1.046       .  S
C3968      C3969   1.406       .  A
C3968      H3973   1.084       .  S
C3969      C3970   1.419       .  A
C3969      N3974   1.438       .  S
C3970      C3971   1.407       .  A
C3971      C3972   1.409       .  A
C3971      H3975   1.083       .  S
C3972      N3976   1.437       .  S
N3974      H3977   1.045       .  S
N3974      H3978   1.046       .  S
N3976      H3979   1.045       .  S
N3976      H3980   1.046       .  S
C3985      C3986   1.408       .  A
C3985      C3990   1.406       .  A
C3986      C3987   1.410       .  A
C3986      N3991   1.434       .  S
C3987      C3988   1.406       .  A
C3987      H3992   1.084       .  S
C3988      C3993   1.492       .  S
C3988      C3989   1.418       .  A
C3989      C3990   1.404       .  A
C3989      N3994   1.438       .  S
C3990      H3995   1.084       .  S
N3991      H4011   1.045       .  S
N3991      H4012   1.046       .  S
C3993      C3996   1.406       .  A
C3993      C4000   1.407       .  A
N3994      H4009   1.045       .  S
N3994      H4010   1.043       .  S
C3996      C3997   1.410       .  A
C3996      H4001   1.084       .  S
C3997      C3998   1.421       .  A
C3998      C3999   1.411       .  A
C3999      C4000   1.406       .  A
C4000      N4004   1.438       .  S
N4002      H4005   1.046       .  S
N4002      H4006   1.040       .  S
N4004      H4008   1.043       .  S
C4013      C4014   1.408       .  A
C4013      C4018   1.401       .  A
C4014      C4015   1.406       .  A
C4014      N4019   1.432       .  S
C4015      C4016   1.409       .  A
C4015      H4020   1.081       .  S
C4016      C4021   1.516       .  S
C4016      C4017   1.421       .  A
C4017      C4018   1.412       .  A
C4017      N4022   1.432       .  S
C4018      H4023   1.078       .  S
N4019      H4039   1.044       .  S
N4019      H4040   1.046       .  S
C4021      C4024   1.411       .  A
C4021      C4028   1.422       .  A
N4022      H4037   1.046       .  S
N4022      H4038   1.046       .  S
C4024      C4025   1.411       .  A
C4024      H4029   1.082       .  S
C4025      C4026   1.408       .  A
C4026      C4027   1.401       .  A
C4027      C4028   1.412       .  A
C4027      H4031   1.082       .  S
C4028      N4032   1.438       .  S
N4030      H4033   1.045       .  S
N4030      H4034   1.046       .  S
N4032      H4035   1.046       .  S
N4032      H4036   1.045       .  S
C4041      C4042   1.413       .  A
C4041      C4046   1.408       .  A
C4042      C4043   1.416       .  A
C4043      C4044   1.406       .  A
C4043      H4048   1.084       .  S
C4044      C4049   1.498       .  S
C4044      C4045   1.411       .  A
C4045      C4046   1.410       .  A
C4045      N4050   1.437       .  S
C4046      H4051   1.084       .  S
N4047      H4067   1.045       .  S
N4047      H4068   1.046       .  S
C4049      C4052   1.407       .  A
C4049      C4056   1.409       .  A
N4050      H4065   1.046       .  S
N4050      H4066   1.044       .  S
C4052      C4053   1.416       .  A
C4052      H4057   1.084       .  S
C4053      C4054   1.413       .  A
C4053      N4058   1.437       .  S
C4054      C4055   1.410       .  A
C4055      C4056   1.409       .  A
C4055      H4059   1.084       .  S
C4056      N4060   1.437       .  S
N4058      H4061   1.045       .  S
N4058      H4062   1.044       .  S
N4060      H4063   1.045       .  S
N4060      H4064   1.046       .  S
C4069      C4070   1.416       .  A
C4069      C4074   1.408       .  A
C4070      C4071   1.401       .  A
C4071      C4072   1.400       .  A
C4071      H4076   1.084       .  S
C4072      C4077   1.477       .  S
C4072      C4073   1.407       .  A
C4073      C4074   1.401       .  A
C4073      N4078   1.438       .  S
C4074      H4079   1.083   1_655  S
N4075      H4095   1.046   1_545  S
N4075      H4096   1.045       .  S
C4077      C4080   1.399       .  A
C4077      C4084   1.410       .  A
N4078      H4094   1.045   1_655  S
C4080      C4081   1.398       .  A
C4080      H4085   1.084       .  S
C4081      C4082   1.414       .  A
C4081      N4086   1.439       .  S
C4082      C4083   1.404       .  A
C4083      C4084   1.406       .  A
C4083      H4087   1.084       .  S
C4084      N4088   1.437       .  S
N4086      H4089   1.045       .  S
N4086      H4090   1.046       .  S
N4088      H4091   1.045       .  S
N4088      H4092   1.046       .  S
C4097      C4098   1.418       .  A
C4097      C4102   1.405       .  A
C4098      C4099   1.402       .  A
C4098      N4103   1.439       .  S
C4099      C4100   1.399       .  A
C4099      H4104   1.084       .  S
C4100      C4105   1.476       .  S
C4100      C4101   1.408       .  A
C4101      C4102   1.403       .  A
C4101      N4106   1.438       .  S
C4102      H4107   1.084       .  S
N4103      H4123   1.046       .  S
N4103      H4124   1.045       .  S
C4105      C4108   1.405       .  A
C4105      C4112   1.406       .  A
N4106      H4121   1.046       .  S
N4106      H4122   1.046       .  S
C4108      C4109   1.409       .  A
C4108      H4113   1.084       .  S
C4109      C4110   1.410       .  A
C4109      N4114   1.437       .  S
C4110      C4111   1.405       .  A
C4111      C4112   1.398       .  A
C4111      H4115   1.084       .  S
C4112      N4116   1.438       .  S
N4114      H4117   1.046       .  S
N4114      H4118   1.046       .  S
N4116      H4119   1.045       .  S
N4116      H4120   1.046       .  S
C4125      C4126   1.417       .  A
C4125      C4130   1.410       .  A
C4126      C4127   1.405       .  A
C4126      N4131   1.438       .  S
C4127      C4128   1.401       .  A
C4127      H4132   1.084       .  S
C4128      C4133   1.483       .  S
C4128      C4129   1.408       .  A
C4129      C4130   1.407       .  A
C4129      N4134   1.438       .  S
C4130      H4135   1.083       .  S
N4131      H4151   1.046       .  S
N4131      H4152   1.045       .  S
C4133      C4136   1.404       .  A
C4133      C4140   1.405       .  A
N4134      H4149   1.046       .  S
N4134      H4150   1.046       .  S
C4136      C4137   1.412       .  A
C4136      H4141   1.084       .  S
C4137      C4138   1.416       .  A
C4137      N4142   1.437       .  S
C4138      C4139   1.410       .  A
C4139      C4140   1.399       .  A
C4139      H4143   1.083       .  S
C4140      N4144   1.439       .  S
N4142      H4145   1.045       .  S
N4142      H4146   1.046       .  S
N4144      H4147   1.046       .  S
N4144      H4148   1.046       .  S
C4153      C4154   1.412       .  A
C4153      C4158   1.403       .  A
C4154      C4155   1.401       .  A
C4154      N4159   1.438       .  S
C4155      H4160   1.084       .  S
C4156      C4161   1.475   1_545  S
C4156      C4157   1.410       .  A
C4157      N4162   1.438   1_545  S
C4158      H4163   1.084       .  S
N4159      H4179   1.044       .  S
N4159      H4180   1.046       .  S
C4161      C4164   1.403       .  A
C4161      C4168   1.411       .  A
N4162      H4177   1.046       .  S
N4162      H4178   1.046       .  S
C4164      C4165   1.399       .  A
C4164      H4169   1.084       .  S
C4165      C4166   1.404       .  A
C4165      N4170   1.432       .  S
C4166      C4167   1.397       .  A
C4167      C4168   1.400       .  A
C4167      H4171   1.081       .  S
C4168      N4172   1.438       .  S
N4170      H4173   1.046       .  S
N4170      H4174   1.045       .  S
N4172      H4175   1.046       .  S
C4181      C4182   1.411       .  A
C4181      C4186   1.407       .  A
C4182      C4183   1.395       .  A
C4182      N4187   1.428       .  S
C4183      C4184   1.395       .  A
C4183      H4188   1.084       .  S
C4184      C4189   1.467       .  S
C4184      C4185   1.406       .  A
C4185      C4186   1.404       .  A
C4185      N4190   1.437       .  S
C4186      H4191   1.083       .  S
N4187      H4207   1.046       .  S
N4187      H4208   1.046       .  S
C4189      C4196   1.406       .  A
N4190      H4205   1.045       .  S
N4190      H4206   1.046       .  S
C4192      C4193   1.403       .  A
C4192      H4197   1.084       .  S
C4193      C4194   1.412       .  A
C4193      N4198   1.438       .  S
C4194      C4195   1.402       .  A
C4195      H4199   1.084       .  S
C4196      N4200   1.438       .  S
N4198      H4201   1.046       .  S
N4198      H4202   1.045       .  S
N4200      H4203   1.046       .  S
N4200      H4204   1.045       .  S
C4209      C4210   1.415       .  A
C4209      C4214   1.403       .  A
C4210      C4211   1.398       .  A
C4210      N4215   1.438       .  S
C4211      C4212   1.403       .  A
C4211      H4216   1.084       .  S
C4212      C4217   1.480       .  S
C4212      C4213   1.409       .  A
C4213      C4214   1.402       .  A
C4213      N4218   1.438       .  S
C4214      H4219   1.080       .  S
N4215      H4235   1.042       .  S
N4215      H4236   1.046       .  S
C4217      C4220   1.401       .  A
C4217      C4224   1.409       .  A
N4218      H4233   1.046       .  S
N4218      H4234   1.046       .  S
C4220      C4221   1.405       .  A
C4220      H4225   1.084       .  S
C4221      C4222   1.418       .  A
C4221      N4226   1.438       .  S
C4222      C4223   1.405       .  A
C4223      C4224   1.403       .  A
C4223      H4227   1.083       .  S
C4224      N4228   1.438       .  S
N4226      H4229   1.046       .  S
N4226      H4230   1.045       .  S
N4228      H4231   1.045       .  S
N4228      H4232   1.046       .  S
C4237      C4238   1.410       .  A
C4237      C4242   1.403       .  A
C4238      C4239   1.418       .  A
C4238      N4243   1.437       .  S
C4239      C4240   1.413       .  A
C4239      H4244   1.083       .  S
C4240      C4241   1.418       .  A
C4241      C4242   1.407       .  A
C4241      N4246   1.438       .  S
C4242      H4247   1.083       .  S
N4243      H4263   1.045       .  S
N4243      H4264   1.046       .  S
C4245      C4248   1.404       .  A
C4245      C4252   1.420       .  A
N4246      H4261   1.046       .  S
C4248      C4249   1.400       .  A
C4248      H4253   1.083       .  S
C4249      C4250   1.421       .  A
C4249      N4254   1.438       .  S
C4250      C4251   1.405       .  A
C4251      C4252   1.420       .  A
C4251      H4255   1.083       .  S
C4252      N4256   1.437       .  S
N4254      H4257   1.045       .  S
N4254      H4258   1.041       .  S
N4256      H4259   1.045       .  S
N4256      H4260   1.046       .  S
C4265      C4266   1.429       .  A
C4265      C4270   1.409       .  A
C4266      C4267   1.399       .  A
C4266      N4271   1.430       .  S
C4267      C4268   1.396       .  A
C4268      C4269   1.416       .  A
C4269      C4270   1.421       .  A
C4269      N4274   1.438       .  S
C4270      H4275   1.083       .  S
N4271      H4291   1.045       .  S
N4271      H4292   1.031       .  S
C4273      C4276   1.403       .  A
C4273      C4280   1.415       .  A
N4274      H4289   1.045       .  S
N4274      H4290   1.043       .  S
C4276      C4277   1.409       .  A
C4276      H4281   1.084       .  S
C4277      C4278   1.416       .  A
C4277      N4282   1.438       .  S
C4278      C4279   1.405       .  A
C4279      C4280   1.417       .  A
C4279      H4283   1.078       .  S
C4280      N4284   1.438       .  S
N4282      H4285   1.046       .  S
N4282      H4286   1.045       .  S
N4284      H4287   1.046       .  S
N4284      H4288   1.043       .  S
C4293      C4294   1.407       .  A
C4293      C4298   1.405       .  A
C4294      C4295   1.405       .  A
C4294      N4299   1.426       .  S
C4295      C4296   1.405       .  A
C4295      H4300   1.083       .  S
C4296      C4301   1.509       .  S
C4296      C4297   1.419       .  A
C4297      C4298   1.417       .  A
C4297      N4302   1.437       .  S
C4298      H4303   1.082       .  S
N4299      H4319   1.047       .  S
N4299      H4320   1.043       .  S
C4301      C4304   1.410       .  A
C4301      C4308   1.416       .  A
N4302      H4317   1.046       .  S
N4302      H4318   1.045       .  S
C4304      C4305   1.415       .  A
C4304      H4309   1.083       .  S
C4305      C4306   1.410       .  A
C4305      N4310   1.433       .  S
C4306      C4307   1.407       .  A
C4307      C4308   1.408       .  A
C4307      H4311   1.084       .  S
C4308      N4312   1.438       .  S
N4310      H4313   1.046       .  S
N4310      H4314   1.045       .  S
N4312      H4315   1.046       .  S
N4312      H4316   1.046       .  S
C4321      C4322   1.408       .  A
C4321      C4326   1.403       .  A
C4322      C4323   1.399       .  A
C4322      N4327   1.431   1_565  S
C4323      C4324   1.401       .  A
C4323      H4328   1.084       .  S
C4324      C4329   1.479       .  S
C4324      C4325   1.410       .  A
C4325      C4326   1.404       .  A
C4325      N4330   1.437       .  S
C4326      H4331   1.084       .  S
N4327      H4347   1.045       .  S
N4327      H4348   1.046       .  S
C4329      C4332   1.399       .  A
C4329      C4336   1.407       .  A
N4330      H4345   1.045       .  S
N4330      H4346   1.047       .  S
C4332      C4333   1.404       .  A
C4332      H4337   1.084       .  S
C4333      C4334   1.420       .  A
C4333      N4338   1.438       .  S
C4334      C4335   1.409       .  A
C4335      C4336   1.405       .  A
C4335      H4339   1.083       .  S
C4336      N4340   1.438       .  S
N4338      H4341   1.046       .  S
N4338      H4342   1.046       .  S
N4340      H4343   1.046       .  S
N4340      H4344   1.045       .  S
C4349      C4350   1.417       .  A
C4349      C4354   1.401       .  A
C4350      C4351   1.400       .  A
C4351      C4352   1.402       .  A
C4351      H4356   1.084       .  S
C4352      C4357   1.482       .  S
C4352      C4353   1.410       .  A
C4353      C4354   1.404       .  A
C4353      N4358   1.437       .  S
N4355      H4375   1.042       .  S
N4355      H4376   1.045       .  S
C4357      C4360   1.402       .  A
C4357      C4364   1.407       .  A
N4358      H4374   1.046       .  S
C4360      C4361   1.407       .  A
C4360      H4365   1.084       .  S
C4361      C4362   1.417       .  A
C4361      N4366   1.438       .  S
C4362      C4363   1.408       .  A
C4363      C4364   1.403       .  A
C4363      H4367   1.083       .  S
C4364      N4368   1.438       .  S
N4366      H4369   1.046       .  S
N4366      H4370   1.045       .  S
N4368      H4371   1.047       .  S
N4368      H4372   1.044       .  S
C4377      C4378   1.417       .  A
C4377      C4382   1.409       .  A
C4378      C4379   1.404       .  A
C4378      N4383   1.438       .  S
C4379      C4380   1.400       .  A
C4379      H4384   1.084       .  S
C4380      C4385   1.472       .  S
C4380      C4381   1.405       .  A
C4381      C4382   1.400       .  A
C4381      N4386   1.439       .  S
C4382      H4387   1.083       .  S
N4383      H4403   1.046       .  S
N4383      H4404   1.045       .  S
C4385      C4388   1.398       .  A
C4385      C4392   1.408       .  A
N4386      H4401   1.045       .  S
N4386      H4402   1.046       .  S
C4388      C4389   1.398       .  A
C4388      H4393   1.084       .  S
C4389      C4390   1.410       .  A
C4390      C4391   1.401       .  A
C4391      C4392   1.403       .  A
C4391      H4395   1.078       .  S
C4392      N4396   1.438       .  S
N4394      H4397   1.045       .  S
N4394      H4398   1.046       .  S
N4396      H4399   1.046       .  S
N4396      H4400   1.045       .  S
C4405      C4406   1.412       .  A
C4405      C4410   1.400       .  A
C4406      C4407   1.400       .  A
C4406      N4411   1.430       .  S
C4407      C4408   1.402       .  A
C4407      H4412   1.084       .  S
C4408      C4413   1.479       .  S
C4408      C4409   1.411       .  A
C4409      C4410   1.397       .  A
C4409      N4414   1.432       .  S
C4410      H4415   1.083       .  S
N4411      H4431   1.042       .  S
N4411      H4432   1.046       .  S
C4413      C4416   1.400       .  A
C4413      C4420   1.405       .  A
N4414      H4429   1.045       .  S
N4414      H4430   1.045       .  S
C4416      C4417   1.407       .  A
C4416      H4421   1.084       .  S
C4417      C4418   1.419       .  A
C4417      N4422   1.438       .  S
C4418      C4419   1.411       .  A
C4419      C4420   1.406       .  A
C4419      H4423   1.083       .  S
C4420      N4424   1.438       .  S
N4424      H4427   1.046       .  S
N4424      H4428   1.045       .  S
C4433      C4434   1.413       .  A
C4433      C4438   1.403       .  A
C4434      C4435   1.403       .  A
C4434      N4439   1.437       .  S
C4435      C4436   1.400       .  A
C4435      H4440   1.084       .  S
C4436      C4441   1.478       .  S
C4436      C4437   1.409       .  A
C4437      C4438   1.404       .  A
C4437      N4442   1.438       .  S
C4438      H4443   1.082       .  S
N4439      H4459   1.045       .  S
N4439      H4460   1.046       .  S
C4441      C4444   1.402       .  A
C4441      C4448   1.410       .  A
N4442      H4457   1.045       .  S
N4442      H4458   1.046       .  S
C4444      C4445   1.403       .  A
C4444      H4449   1.084       .  S
C4445      C4446   1.409       .  A
C4446      C4447   1.402       .  A
C4447      C4448   1.405       .  A
C4447      H4451   1.084       .  S
C4448      N4452   1.437       .  S
N4450      H4453   1.046       .  S
N4450      H4454   1.046       .  S
N4452      H4455   1.047       .  S
N4452      H4456   1.044       .  S
C4461      C4462   1.419       .  A
C4461      C4466   1.403       .  A
C4462      C4463   1.400       .  A
C4462      N4467   1.438       .  S
C4463      C4464   1.400       .  A
C4463      H4468   1.084       .  S
C4464      C4469   1.470       .  S
C4464      C4465   1.405       .  A
C4465      C4466   1.398       .  A
C4465      N4470   1.438       .  S
C4466      H4471   1.084       .  S
N4467      H4487   1.041       .  S
N4467      H4488   1.047       .  S
C4469      C4472   1.399       .  A
C4469      C4476   1.407       .  A
N4470      H4485   1.046       .  S
N4470      H4486   1.045       .  S
C4472      C4473   1.403       .  A
C4472      H4477   1.084       .  S
C4473      C4474   1.414       .  A
C4473      N4478   1.438       .  S
C4474      C4475   1.403       .  A
C4475      C4476   1.403       .  A
C4475      H4479   1.084       .  S
C4476      N4480   1.438       .  S
N4480      H4483   1.045       .  S
N4480      H4484   1.046       .  S
C4489      C4490   1.411       .  A
C4489      C4494   1.405       .  A
C4490      C4491   1.401       .  A
C4490      N4495   1.433       .  S
C4491      C4492   1.406       .  A
C4491      H4496   1.082       .  S
C4492      C4497   1.513       .  S
C4492      C4493   1.423       .  A
C4493      C4494   1.419       .  A
C4493      N4498   1.437       .  S
C4494      H4499   1.083       .  S
N4495      H4515   1.045       .  S
N4495      H4516   1.045       .  S
C4497      C4500   1.412       .  A
C4497      C4504   1.420       .  A
N4498      H4513   1.045       .  S
N4498      H4514   1.045       .  S
C4500      C4501   1.416       .  A
C4500      H4505   1.082       .  S
C4501      C4502   1.411       .  A
C4502      C4503   1.399       .  A
C4503      C4504   1.408       .  A
C4504      N4508   1.438       .  S
N4506      H4509   1.045       .  S
N4506      H4510   1.045       .  S
N4508      H4512   1.045       .  S
C4517      C4518   1.407       .  A
C4517      C4522   1.403       .  A
C4518      C4519   1.406       .  A
C4518      N4523   1.431       .  S
C4519      C4520   1.406       .  A
C4519      H4524   1.083       .  S
C4520      C4525   1.502       .  S
C4520      C4521   1.414       .  A
C4521      C4522   1.412       .  A
C4521      N4526   1.432       .  S
C4522      H4527   1.083       .  S
N4523      H4543   1.045       .  S
N4523      H4544   1.045       .  S
C4525      C4528   1.401       .  A
C4525      C4532   1.417       .  A
N4526      H4541   1.046       .  S
N4526      H4542   1.045       .  S
C4528      C4529   1.402       .  A
C4528      H4533   1.084       .  S
C4529      C4530   1.424       .  A
C4529      N4534   1.436   1_565  S
C4530      C4531   1.404       .  A
C4531      C4532   1.417       .  A
C4531      H4535   1.082       .  S
C4532      N4536   1.437       .  S
N4536      H4539   1.046       .  S
N4536      H4540   1.045       .  S
C4545      C4546   1.405       .  A
C4545      C4550   1.406       .  A
C4546      C4547   1.413       .  A
C4546      N4551   1.431       .  S
C4547      C4548   1.416       .  A
C4547      H4552   1.082       .  S
C4548      C4553   1.513       .  S
C4548      C4549   1.417       .  A
C4549      C4550   1.406       .  A
C4549      N4554   1.438       .  S
C4550      H4555   1.083       .  S
N4551      H4571   1.045       .  S
N4551      H4572   1.046       .  S
C4553      C4556   1.414       .  A
C4553      C4560   1.417       .  A
N4554      H4569   1.046       .  S
N4554      H4570   1.046       .  S
C4556      C4557   1.410       .  A
C4556      H4561   1.082       .  S
C4557      C4558   1.404       .  A
C4557      N4562   1.432       .  S
C4558      C4559   1.403       .  A
C4559      C4560   1.408       .  A
C4559      H4563   1.084       .  S
C4560      N4564   1.432       .  S
N4562      H4565   1.045       .  S
N4562      H4566   1.045       .  S
N4564      H4567   1.045       .  S
N4564      H4568   1.046       .  S
C4573      C4574   1.402       .  A
C4573      C4578   1.396       .  A
C4574      C4575   1.403       .  A
C4574      N4579   1.432       .  S
C4575      C4576   1.404       .  A
C4575      H4580   1.084       .  S
C4576      C4581   1.474       .  S
C4576      C4577   1.416       .  A
C4577      C4578   1.395       .  A
C4577      N4582   1.439       .  S
C4578      H4583   1.078       .  S
N4579      H4599   1.046       .  S
N4579      H4600   1.044       .  S
C4581      C4584   1.396       .  A
C4581      C4588   1.409       .  A
N4582      H4597   1.046       .  S
N4582      H4598   1.043       .  S
C4584      C4585   1.401       .  A
C4584      H4589   1.084       .  S
C4585      C4586   1.419       .  A
C4585      N4590   1.438       .  S
C4586      C4587   1.408       .  A
C4587      C4588   1.406       .  A
C4587      H4591   1.083       .  S
C4588      N4592   1.438       .  S
N4592      H4595   1.046       .  S
N4592      H4596   1.044       .  S
C4601      C4602   1.420       .  A
C4601      C4606   1.406       .  A
C4602      C4603   1.406       .  A
C4602      N4607   1.438       .  S
C4603      C4604   1.399       .  A
C4603      H4608   1.084       .  S
C4604      C4609   1.481       .  S
C4604      C4605   1.409       .  A
C4605      C4606   1.406       .  A
C4605      N4610   1.438       .  S
C4606      H4611   1.083       .  S
C4609      C4612   1.400       .  A
C4609      C4616   1.412       .  A
N4610      H4625   1.046       .  S
N4610      H4626   1.046       .  S
C4612      C4613   1.402       .  A
C4612      H4617   1.084       .  S
C4613      C4614   1.410       .  A
C4613      N4618   1.437       .  S
C4614      C4615   1.404       .  A
C4615      C4616   1.408       .  A
C4615      H4619   1.083       .  S
C4616      N4620   1.437       .  S
N4618      H4621   1.045       .  S
N4618      H4622   1.045       .  S
N4620      H4623   1.046       .  S
N4620      H4624   1.045       .  S
C4629      C4630   1.415       .  A
C4629      C4634   1.403       .  A
C4630      C4631   1.403       .  A
C4630      N4635   1.438       .  S
C4631      C4632   1.399       .  A
C4631      H4636   1.084       .  S
C4632      C4637   1.469       .  S
C4632      C4633   1.407       .  A
C4633      C4634   1.401       .  A
C4633      N4638   1.438       .  S
C4634      H4639   1.084       .  S
N4635      H4655   1.046       .  S
N4635      H4656   1.046       .  S
C4637      C4640   1.394       .  A
C4637      C4644   1.407       .  A
N4638      H4653   1.046       .  S
N4638      H4654   1.046       .  S
C4640      C4641   1.394       .  A
C4640      H4645   1.085       .  S
C4641      C4642   1.410       .  A
C4641      N4646   1.426       .  S
C4642      C4643   1.408       .  A
C4643      C4644   1.405       .  A
C4643      H4647   1.083       .  S
C4644      N4648   1.437       .  S
N4646      H4649   1.046       .  S
N4646      H4650   1.046       .  S
N4648      H4651   1.046       .  S
N4648      H4652   1.045       .  S
C4657      C4658   1.413       .  A
C4657      C4662   1.406       .  A
C4658      C4659   1.410       .  A
C4658      N4663   1.437       .  S
C4659      C4660   1.403       .  A
C4659      H4664   1.084       .  S
C4660      C4665   1.475       .  S
C4660      C4661   1.404       .  A
C4661      C4662   1.399       .  A
C4661      N4666   1.438       .  S
C4662      H4667   1.084       .  S
N4663      H4683   1.045       .  S
N4663      H4684   1.046       .  S
C4665      C4668   1.397       .  A
C4665      C4672   1.408       .  A
N4666      H4681   1.045       .  S
N4666      H4682   1.046       .  S
C4668      C4669   1.402       .  A
C4668      H4673   1.084       .  S
C4669      C4670   1.418       .  A
C4670      C4671   1.406       .  A
C4671      C4672   1.405       .  A
C4671      H4675   1.084       .  S
C4672      N4676   1.438       .  S
N4674      H4677   1.045       .  S
N4674      H4678   1.046       .  S
N4676      H4679   1.046       .  S
N4676      H4680   1.045       .  S
C4685      C4686   1.421       .  A
C4685      C4690   1.409       .  A
C4686      C4687   1.410       .  A
C4686      N4691   1.438       .  S
C4687      C4688   1.400       .  A
C4687      H4692   1.084       .  S
C4688      C4693   1.487       .  S
C4688      C4689   1.408       .  A
C4689      C4690   1.407       .  A
C4689      N4694   1.438       .  S
C4690      H4695   1.083       .  S
C4693      C4696   1.403       .  A
C4693      C4700   1.407       .  A
N4694      H4709   1.045       .  S
N4694      H4710   1.046       .  S
C4696      C4697   1.410       .  A
C4696      H4701   1.084       .  S
C4697      C4698   1.415       .  A
C4697      N4702   1.437       .  S
C4698      C4699   1.411       .  A
C4699      C4700   1.407       .  A
C4699      H4703   1.084       .  S
C4700      N4704   1.438       .  S
N4702      H4705   1.046       .  S
N4702      H4706   1.045       .  S
N4704      H4707   1.046       .  S
N4704      H4708   1.046       .  S
C4713      C4714   1.420       .  A
C4713      C4718   1.405       .  A
C4714      C4715   1.403       .  A
C4714      N4719   1.439       .  S
C4715      C4716   1.399       .  A
C4715      H4720   1.084       .  S
C4716      C4721   1.478       .  S
C4716      C4717   1.409       .  A
C4717      C4718   1.404       .  A
C4717      N4722   1.438       .  S
C4718      H4723   1.084       .  S
N4719      H4739   1.046       .  S
N4719      H4740   1.046       .  S
C4721      C4724   1.404       .  A
C4721      C4728   1.408       .  A
N4722      H4737   1.046       .  S
N4722      H4738   1.045       .  S
C4724      C4725   1.407       .  A
C4724      H4729   1.084       .  S
C4725      C4726   1.410       .  A
C4725      N4730   1.437       .  S
C4726      C4727   1.403       .  A
C4727      C4728   1.401       .  A
C4727      H4731   1.084       .  S
C4728      N4732   1.438       .  S
N4730      H4733   1.046       .  S
N4730      H4734   1.045       .  S
N4732      H4735   1.045       .  S
N4732      H4736   1.046       .  S
C4741      C4742   1.419       .  A
C4741      C4746   1.408       .  A
C4742      C4743   1.410   1_565  A
C4742      N4747   1.438       .  S
C4743      H4748   1.084       .  S
C4744      C4749   1.490       .  S
C4745      C4746   1.408       .  A
C4746      H4751   1.083       .  S
N4747      H4767   1.045       .  S
N4747      H4768   1.046       .  S
C4749      C4752   1.404       .  A
C4749      C4756   1.420       .  A
N4750      H4766   1.046       .  S
C4752      C4753   1.405       .  A
C4752      H4757   1.084       .  S
C4753      C4754   1.410       .  A
C4753      N4758   1.432       .  S
C4754      C4755   1.402       .  A
C4755      C4756   1.403       .  A
C4755      H4759   1.084       .  S
C4756      N4760   1.438       .  S
N4758      H4761   1.045       .  S
N4758      H4762   1.046       .  S
N4760      H4763   1.045       .  S
C4769      C4770   1.413       .  A
C4769      C4774   1.407       .  A
C4770      C4771   1.403       .  A
C4770      N4775   1.438       .  S
C4771      H4776   1.084       .  S
C4772      C4777   1.473       .  S
C4772      C4773   1.406   1_655  A
C4773      N4778   1.438   1_455  S
C4774      H4779   1.084       .  S
N4775      H4795   1.045       .  S
N4775      H4796   1.046       .  S
C4777      C4780   1.396       .  A
C4777      C4784   1.405       .  A
N4778      H4793   1.045       .  S
N4778      H4794   1.045       .  S
C4780      C4781   1.400       .  A
C4780      H4785   1.084       .  S
C4781      C4782   1.418       .  A
C4781      N4786   1.430       .  S
C4782      C4783   1.409       .  A
C4783      C4784   1.404       .  A
C4783      H4787   1.082       .  S
C4784      N4788   1.437       .  S
N4786      H4789   1.046       .  S
N4786      H4790   1.045       .  S
N4788      H4791   1.046       .  S
C4797      C4798   1.414       .  A
C4797      C4802   1.406       .  A
C4798      C4799   1.406       .  A
C4798      N4803   1.437       .  S
C4799      C4800   1.402       .  A
C4799      H4804   1.084       .  S
C4800      C4805   1.481       .  S
C4800      C4801   1.409       .  A
C4801      C4802   1.404       .  A
C4801      N4806   1.438       .  S
C4802      H4807   1.084       .  S
N4803      H4823   1.046       .  S
N4803      H4824   1.045       .  S
C4805      C4808   1.400       .  A
C4805      C4812   1.417       .  A
N4806      H4821   1.046       .  S
N4806      H4822   1.045       .  S
C4808      C4809   1.395       .  A
C4808      H4813   1.084       .  S
C4809      C4810   1.413       .  A
C4809      N4814   1.435       .  S
C4810      C4811   1.402       .  A
C4811      C4812   1.402       .  A
C4811      H4815   1.083       .  S
C4812      N4816   1.437       .  S
N4814      H4817   1.051       .  S
N4814      H4818   1.031       .  S
N4816      H4819   1.046       .  S
N4816      H4820   1.043       .  S
