geometry optimzed in LAMMPS
_audit_creation_date              2020-11-30 
_audit_creation_method            'lammps2cif' 
_symmetry_space_group_name_H-M    'P1' 
_symmetry_Int_Tables_number       1 
_symmetry_cell_setting            triclinic 
loop_ 
_symmetry_equiv_pos_as_xyz 
  x,y,z 
_cell_length_a                    30.483045467934023 
_cell_length_b                    29.549044405456282 
_cell_length_c                    32.976723627979986 
_cell_angle_alpha                 89.99609617647117 
_cell_angle_beta                  90.04537304448617 
_cell_angle_gamma                 89.74038903879875 
loop_ 
_atom_site_label 
_atom_site_type_symbol 
_atom_site_fract_x 
_atom_site_fract_y 
_atom_site_fract_z 
_atom_site_charge 
C1          C  0.36873438  0.49640377  0.40447525     0.42020
N2          N  0.40795743  0.47657079  0.45598814     0.00910
C3          C  0.03602403  0.11995586  0.07333813    -0.06970
H4          H  0.06457252  0.12549268  0.41528221     0.06400
C5          C  0.11260025  0.46118023  0.42477524    -0.07320
Co6        Co  0.44197210  0.05702008  0.50154430     0.74180
N7          N  0.01909368  0.09265256  0.45578736    -0.26500
Co8        Co  0.05599890  0.05849369  0.49968219     0.74070
C9          C  0.12918874  0.50140324  0.40407896     0.42120
N10         N  0.02227165  0.40555433  0.45787482     0.00520
N11         N  0.09017084  0.02145681  0.45559224     0.00630
N12         N  0.46238955  0.11407939  0.07780947    -0.47350
H13         H  0.38096614  0.07198550  0.41731612     0.06380
N14         N  0.47581966  0.09240146  0.45744653     0.00910
N15         N  0.09036243  0.02284673  0.04475516     0.00650
C16         C  0.12887393  0.00411595  0.09680975     0.42260
N17         N  0.47898976  0.40529723  0.45635811    -0.25960
C18         C  0.38412917  0.03539787  0.07606842    -0.06880
N19         N  0.38443113  0.46035626  0.42542155    -0.47060
N20         N  0.11278365  0.03983961  0.07570886    -0.47290
C21         C  0.36972408  0.99469123  0.09708739     0.42030
N22         N  0.47785281  0.09139895  0.04615943     0.00900
N23         N  0.47766532  0.40514634  0.04422407    -0.25980
N24         N  0.40852611  0.02119182  0.45665122    -0.26470
N25         N  0.02079795  0.40721193  0.04650741     0.00540
H26         H  0.42877468  0.37046854  0.07905075     0.06430
H27         H  0.12050981  0.42819572  0.08336845     0.06460
N28         N  0.02096007  0.09349103  0.04363480    -0.26520
N29         N  0.08955289  0.47684419  0.45639751    -0.26130
N30         N  0.40820071  0.47573175  0.04515786     0.00900
C31         C  0.49000279  0.13350705  0.40597253     0.42300
C32         C  0.46666026  0.37956512  0.42483333    -0.07380
N33         N  0.09023822  0.47822184  0.04481180    -0.26130
H34         H  0.11687427  0.42587169  0.41716386     0.06450
N35         N  0.45720960  0.11601841  0.42803398    -0.47350
H36         H  0.43328141  0.37206973  0.41624140     0.06440
C37         C  0.00172964  0.36629765  0.09754445     0.42140
C38         C  0.38533231  0.03671395  0.42503797    -0.06880
Co39       Co  0.44234830  0.43980806  0.00017559     0.73820
N40         N  0.04071619  0.38157215  0.42864806    -0.47070
C41         C  0.99730994  0.13278791  0.09682772     0.42400
N42         N  0.38577138  0.45888219  0.07613297    -0.47060
Co43       Co  0.05637596  0.44128780  0.00159813     0.73890
C44         C  0.11445058  0.46332586  0.07591450    -0.07390
C45         C  0.03124614  0.11803926  0.42400307    -0.06950
N46         N  0.40833274  0.02035760  0.04504570    -0.26480
N47         N  0.11364080  0.03752299  0.42496538    -0.47240
H48         H  0.07009100  0.12862206  0.07782205     0.06410
C49         C  0.46281752  0.37899028  0.07422226    -0.07360
Cl50       Cl  0.99918917  0.99915011  0.00067314    -0.50370
C51         C  0.50781090  0.36380151  0.40686942     0.42170
H52         H  0.37800428  0.07056293  0.08333142     0.06380
N53         N  0.03651120  0.38478067  0.07821424    -0.47080
C54         C  0.50718339  0.27146850  0.25338509     0.00120
C55         C  0.49168435  0.22684439  0.25306652     0.00120
C56         C  0.27206590  0.49798363  0.25013881     0.00120
C57         C  0.22628379  0.50021990  0.25005197     0.00120
C58         C  0.16286905  0.47474091  0.20447533    -0.02290
C59         C  0.19974792  0.50335940  0.21088991     0.07390
C60         C  0.20901689  0.03652381  0.18073242    -0.02400
C61         C  0.18683933  0.03601691  0.14312183    -0.02410
C62         C  0.15149235  0.50632265  0.13670987     0.07520
C63         C  0.13795780  0.47793973  0.16860336    -0.02600
Br64       Br  0.08285854  0.44585217  0.16486046    -0.01150
Br65       Br  0.14612382  0.42843929  0.24269010    -0.01220
Br66       Br  0.20588775  0.07548686  0.09998176    -0.01180
Br67       Br  0.24696848  0.08716425  0.19183946    -0.01160
C68         C  0.14793935  0.03652008  0.33606650    -0.02290
C69         C  0.15557121  0.50290923  0.36580212     0.07390
C70         C  0.18686410  0.46870490  0.35752892    -0.02400
C71         C  0.20659605  0.46546300  0.31903175    -0.02410
C72         C  0.20061306  0.50014199  0.28969428     0.07520
C73         C  0.16989318  0.03502955  0.29842001    -0.02600
Br74       Br  0.15749596  0.08244939  0.25975413    -0.01150
Br75       Br  0.10806188  0.08603438  0.34606897    -0.01220
Br76       Br  0.23588386  0.40940142  0.30551146    -0.01180
Br77       Br  0.20752334  0.42875638  0.39995120    -0.01160
C78         C  0.28947188  0.46204749  0.18074602    -0.02290
C79         C  0.29869331  0.49504224  0.21105713     0.07390
C80         C  0.33557011  0.02375996  0.20480089    -0.02400
C81         C  0.36035913  0.02090954  0.16885652    -0.02410
C82         C  0.34687585  0.49256041  0.13688620     0.07520
C83         C  0.31162092  0.46277376  0.14316455    -0.02600
Br84       Br  0.29253238  0.42353414  0.09984055    -0.01150
Br85       Br  0.25157600  0.41130770  0.19159788    -0.01220
Br86       Br  0.41513831  0.05352807  0.16505095    -0.01180
Br87       Br  0.35250985  0.06962608  0.24341000    -0.01160
C88         C  0.29144121  0.53237648  0.31934536    -0.02290
C89         C  0.29760540  0.49787739  0.28988826     0.07390
C90         C  0.32847044  0.96303572  0.29859413    -0.02400
C91         C  0.35044091  0.96150756  0.33627096    -0.02410
C92         C  0.34240485  0.49484133  0.36615518     0.07520
C93         C  0.31095954  0.52891033  0.35793648    -0.02600
Br94       Br  0.28991147  0.56838819  0.40051319    -0.01150
Br95       Br  0.26231246  0.58855194  0.30589640    -0.01220
Br96       Br  0.39097904  0.91249231  0.34607481    -0.01180
Br97       Br  0.34094688  0.91575802  0.25985557    -0.01160
C98         C  0.03001103  0.17636173  0.20155371    -0.02290
C99         C  0.49285857  0.20246306  0.21275027     0.07390
C100        C  0.45649695  0.20358608  0.18626412    -0.02400
C101        C  0.45913384  0.18373017  0.14743177    -0.02410
C102        C  0.49587032  0.15687347  0.13662494     0.07520
C103        C  0.03032422  0.15154511  0.16510304    -0.02600
Br104      Br  0.07477402  0.10497033  0.15877362    -0.01150
Br105      Br  0.07733659  0.16678357  0.23918596    -0.01220
Br106      Br  0.41232695  0.19496876  0.10920664    -0.01180
Br107      Br  0.40104466  0.22671964  0.20489676    -0.01160
C108        C  0.98269471  0.15120267  0.29284218    -0.02290
C109        C  0.47771731  0.19936286  0.29064027     0.07390
C110        C  0.45988295  0.21986489  0.32604733    -0.02400
C111        C  0.46415456  0.19842613  0.36405610    -0.02410
C112        C  0.48315070  0.15522516  0.36641494     0.07520
C113        C  0.98804721  0.12996493  0.33077565    -0.02600
Br114      Br  0.99544492  0.06498767  0.33447554    -0.01150
Br115      Br  0.96853850  0.11128628  0.24845479    -0.01220
Br116      Br  0.44255009  0.22714561  0.41282039    -0.01200
Br117      Br  0.42320268  0.27251610  0.32321231    -0.01160
C118        C  0.46924907  0.34815829  0.16601576    -0.02290
C119        C  0.50343950  0.34245672  0.13741958     0.07390
C120        C  0.04007133  0.31540058  0.14814736    -0.02400
C121        C  0.04268407  0.29545108  0.18694345    -0.02410
C122        C  0.50626587  0.29644036  0.21332889     0.07520
C123        C  0.46936111  0.32304699  0.20229283    -0.02600
Br124      Br  0.42207162  0.33275071  0.23979935    -0.01150
Br125      Br  0.42563460  0.39565079  0.16004952    -0.01220
Br126      Br  0.09827284  0.27284574  0.20579496    -0.01180
Br127      Br  0.08676473  0.30405776  0.10990822    -0.01160
C128        C  0.51643801  0.34661510  0.29380246    -0.02290
C129        C  0.52079204  0.29841565  0.29139172     0.07390
C130        C  0.03770303  0.27739636  0.32696438    -0.02400
C131        C  0.03288143  0.29855644  0.36503711    -0.02410
C132        C  0.51452962  0.34206021  0.36732659     0.07520
C133        C  0.51066401  0.36764777  0.33175590    -0.02600
Br134      Br  0.50402392  0.43269671  0.33567530    -0.01150
Br135      Br  0.53207219  0.38661618  0.24991159    -0.01220
Br136      Br  0.05304447  0.26910826  0.41400879    -0.01180
Br137      Br  0.07427231  0.22460695  0.32433634    -0.01160
C138        C  0.36873437  0.49640376  0.90447525     0.42020
N139        N  0.40795743  0.47657077  0.95598814     0.00910
C140        C  0.03602403  0.11995587  0.57333812    -0.06970
H141        H  0.06457252  0.12549269  0.91528222     0.06400
C142        C  0.11260025  0.46118022  0.92477524    -0.07320
Co143      Co  0.44197209  0.05702008  0.00154431     0.74180
N144        N  0.01909368  0.09265257  0.95578737    -0.26500
Co145      Co  0.05599890  0.05849370  0.99968220     0.74070
C146        C  0.12918874  0.50140323  0.90407896     0.42120
N147        N  0.02227165  0.40555432  0.95787482     0.00520
N148        N  0.09017084  0.02145683  0.95559225     0.00630
N149        N  0.46238956  0.11407939  0.57780946    -0.47350
H150        H  0.38096614  0.07198552  0.91731613     0.06380
N151        N  0.47581966  0.09240148  0.95744654     0.00910
N152        N  0.09036243  0.02284673  0.54475516     0.00650
C153        C  0.12887393  0.00411596  0.59680975     0.42260
N154        N  0.47898976  0.40529722  0.95635811    -0.25960
C155        C  0.38412918  0.03539788  0.57606842    -0.06880
N156        N  0.38443113  0.46035625  0.92542156    -0.47060
N157        N  0.11278365  0.03983961  0.57570885    -0.47290
C158        C  0.36972408  0.99469125  0.59708739     0.42030
N159        N  0.47785282  0.09139895  0.54615942     0.00900
N160        N  0.47766532  0.40514635  0.54422407    -0.25980
N161        N  0.40852611  0.02119184  0.95665122    -0.26470
N162        N  0.02079795  0.40721195  0.54650741     0.00540
H163        H  0.42877468  0.37046854  0.57905074     0.06430
H164        H  0.12050980  0.42819574  0.58336846     0.06460
N165        N  0.02096007  0.09349103  0.54363479    -0.26520
N166        N  0.08955289  0.47684419  0.95639750    -0.26130
N167        N  0.40820071  0.47573177  0.54515786     0.00900
C168        C  0.49000280  0.13350706  0.90597254     0.42300
C169        C  0.46666025  0.37956510  0.92483333    -0.07380
N170        N  0.09023823  0.47822185  0.54481180    -0.26130
H171        H  0.11687427  0.42587168  0.91716386     0.06450
N172        N  0.45720960  0.11601842  0.92803398    -0.47350
H173        H  0.43328140  0.37206972  0.91624140     0.06440
C174        C  0.00172963  0.36629766  0.59754445     0.42140
C175        C  0.38533231  0.03671396  0.92503797    -0.06880
Co176      Co  0.44234831  0.43980807  0.50017559     0.73820
N177        N  0.04071619  0.38157215  0.92864805    -0.47070
C178        C  0.99730994  0.13278791  0.59682771     0.42400
N179        N  0.38577138  0.45888221  0.57613297    -0.47060
Co180      Co  0.05637597  0.44128781  0.50159814     0.73890
C181        C  0.11445058  0.46332588  0.57591450    -0.07390
C182        C  0.03124614  0.11803927  0.92400308    -0.06950
N183        N  0.40833275  0.02035760  0.54504569    -0.26480
N184        N  0.11364080  0.03752301  0.92496539    -0.47240
H185        H  0.07009100  0.12862207  0.57782203     0.06410
C186        C  0.46281752  0.37899029  0.57422225    -0.07360
Cl187      Cl  0.99918917  0.99915011  0.50067314    -0.50370
C188        C  0.50781090  0.36380150  0.90686941     0.42170
H189        H  0.37800428  0.07056294  0.58333141     0.06380
N190        N  0.03651120  0.38478068  0.57821424    -0.47080
C191        C  0.50718339  0.27146849  0.75338509     0.00120
C192        C  0.49168436  0.22684438  0.75306651     0.00120
C193        C  0.27206590  0.49798363  0.75013881     0.00120
C194        C  0.22628379  0.50021990  0.75005197     0.00120
C195        C  0.16286905  0.47474092  0.70447533    -0.02290
C196        C  0.19974792  0.50335941  0.71088992     0.07390
C197        C  0.20901688  0.03652384  0.68073242    -0.02400
C198        C  0.18683933  0.03601693  0.64312183    -0.02410
C199        C  0.15149235  0.50632267  0.63670987     0.07520
C200        C  0.13795780  0.47793975  0.66860336    -0.02600
Br201      Br  0.08285854  0.44585219  0.66486046    -0.01150
Br202      Br  0.14612381  0.42843931  0.74269010    -0.01220
Br203      Br  0.20588775  0.07548688  0.59998176    -0.01180
Br204      Br  0.24696847  0.08716428  0.69183945    -0.01160
C205        C  0.14793936  0.03652011  0.83606651    -0.02290
C206        C  0.15557121  0.50290923  0.86580213     0.07390
C207        C  0.18686410  0.46870490  0.85752891    -0.02400
C208        C  0.20659605  0.46546300  0.81903175    -0.02410
C209        C  0.20061306  0.50014200  0.78969428     0.07520
C210        C  0.16989319  0.03502958  0.79842002    -0.02600
Br211      Br  0.15749596  0.08244942  0.75975414    -0.01150
Br212      Br  0.10806190  0.08603443  0.84606899    -0.01220
Br213      Br  0.23588386  0.40940142  0.80551145    -0.01180
Br214      Br  0.20752333  0.42875637  0.89995120    -0.01160
C215        C  0.28947188  0.46204751  0.68074601    -0.02290
C216        C  0.29869331  0.49504225  0.71105713     0.07390
C217        C  0.33557011  0.02376000  0.70480088    -0.02400
C218        C  0.36035913  0.02090957  0.66885651    -0.02410
C219        C  0.34687585  0.49256043  0.63688620     0.07520
C220        C  0.31162092  0.46277378  0.64316454    -0.02600
Br221      Br  0.29253238  0.42353416  0.59984055    -0.01150
Br222      Br  0.25157600  0.41130772  0.69159787    -0.01220
Br223      Br  0.41513830  0.05352812  0.66505094    -0.01180
Br224      Br  0.35250984  0.06962613  0.74340999    -0.01160
C225        C  0.29144121  0.53237648  0.81934537    -0.02290
C226        C  0.29760540  0.49787740  0.78988826     0.07390
C227        C  0.32847045  0.96303576  0.79859412    -0.02400
C228        C  0.35044093  0.96150760  0.83627095    -0.02410
C229        C  0.34240484  0.49484132  0.86615519     0.07520
C230        C  0.31095954  0.52891032  0.85793648    -0.02600
Br231      Br  0.28991146  0.56838818  0.90051319    -0.01150
Br232      Br  0.26231246  0.58855194  0.80589640    -0.01220
Br233      Br  0.39097906  0.91249235  0.84607480    -0.01180
Br234      Br  0.34094689  0.91575807  0.75985556    -0.01160
C235        C  0.03001104  0.17636175  0.70155370    -0.02290
C236        C  0.49285858  0.20246305  0.71275026     0.07390
C237        C  0.45649694  0.20358604  0.68626412    -0.02400
C238        C  0.45913384  0.18373014  0.64743177    -0.02410
C239        C  0.49587033  0.15687348  0.63662492     0.07520
C240        C  0.03032424  0.15154513  0.66510302    -0.02600
Br241      Br  0.07477405  0.10497036  0.65877359    -0.01150
Br242      Br  0.07733661  0.16678360  0.73918594    -0.01220
Br243      Br  0.41232691  0.19496870  0.60920666    -0.01180
Br244      Br  0.40104465  0.22671957  0.70489678    -0.01160
C245        C  0.98269473  0.15120266  0.79284219    -0.02290
C246        C  0.47771733  0.19936284  0.79064026     0.07390
C247        C  0.45988295  0.21986488  0.82604732    -0.02400
C248        C  0.46415456  0.19842612  0.86405609    -0.02410
C249        C  0.48315071  0.15522516  0.86641494     0.07520
C250        C  0.98804723  0.12996493  0.83077566    -0.02600
Br251      Br  0.99544495  0.06498767  0.83447556    -0.01150
Br252      Br  0.96853856  0.11128626  0.74845479    -0.01220
Br253      Br  0.44255007  0.22714561  0.91282037    -0.01200
Br254      Br  0.42320266  0.27251608  0.82321229    -0.01160
C255        C  0.46924905  0.34815827  0.66601575    -0.02290
C256        C  0.50343949  0.34245672  0.63741958     0.07390
C257        C  0.04007133  0.31540059  0.64814735    -0.02400
C258        C  0.04268406  0.29545109  0.68694345    -0.02410
C259        C  0.50626586  0.29644035  0.71332888     0.07520
C260        C  0.46936109  0.32304696  0.70229282    -0.02600
Br261      Br  0.42207159  0.33275066  0.73979932    -0.01150
Br262      Br  0.42563457  0.39565075  0.66004950    -0.01220
Br263      Br  0.09827285  0.27284577  0.70579496    -0.01180
Br264      Br  0.08676473  0.30405779  0.60990822    -0.01160
C265        C  0.51643798  0.34661510  0.79380245    -0.02290
C266        C  0.52079203  0.29841565  0.79139171     0.07390
C267        C  0.03770302  0.27739635  0.82696437    -0.02400
C268        C  0.03288142  0.29855644  0.86503710    -0.02410
C269        C  0.51452961  0.34206020  0.86732659     0.07520
C270        C  0.51066399  0.36764776  0.83175589    -0.02600
Br271      Br  0.50402389  0.43269671  0.83567530    -0.01150
Br272      Br  0.53207215  0.38661618  0.74991159    -0.01220
Br273      Br  0.05304447  0.26910825  0.91400878    -0.01180
Br274      Br  0.07427231  0.22460695  0.82433633    -0.01160
C275        C  0.36877279  0.99640594  0.40447336     0.42020
N276        N  0.40799393  0.97657073  0.45598675     0.00910
C277        C  0.03598932  0.61995567  0.07333848    -0.06970
H278        H  0.06453686  0.62549310  0.41528190     0.06400
C279        C  0.11263793  0.96118002  0.42477578    -0.07320
Co280      Co  0.44193556  0.55702156  0.50154448     0.74180
N281        N  0.01905712  0.59265393  0.45578693    -0.26500
Co282      Co  0.05596277  0.55849516  0.49968153     0.74070
C283        C  0.12922717  0.00140385  0.40408076     0.42120
N284        N  0.02230731  0.90555242  0.45787392     0.00520
N285        N  0.09013415  0.52145802  0.45559096     0.00630
N286        N  0.46235448  0.61408165  0.07781017    -0.47350
H287        H  0.38092791  0.57198407  0.41731593     0.06380
N288        N  0.47578302  0.59240316  0.45744584     0.00910
N289        N  0.09032720  0.52284842  0.04475442     0.00650
C290        C  0.12883935  0.50411666  0.09680840     0.42260
N291        N  0.47902533  0.90529615  0.45635740    -0.25960
C292        C  0.38409364  0.53539766  0.07607008    -0.06880
N293        N  0.38446840  0.96035735  0.42541909    -0.47060
N294        N  0.11274899  0.53984080  0.07570804    -0.47290
C295        C  0.36968907  0.49469035  0.09708865     0.42030
N296        N  0.47781689  0.59140142  0.04615941     0.00900
N297        N  0.47770001  0.90514496  0.04422354    -0.25980
N298        N  0.40848921  0.52119194  0.45665177    -0.26470
N299        N  0.02083279  0.90720899  0.04650728     0.00540
H300        H  0.42880744  0.87047101  0.07905147     0.06430
H301        H  0.12054478  0.92819466  0.08337049     0.06460
N302        N  0.02092429  0.59349243  0.04363452    -0.26520
N303        N  0.08958962  0.97684294  0.45639800    -0.26130
N304        N  0.40823592  0.97573118  0.04515705     0.00900
C305        C  0.48996742  0.63350908  0.40597215     0.42300
C306        C  0.46669497  0.87956449  0.42483264    -0.07380
N307        N  0.09027357  0.97822006  0.04481276    -0.26130
H308        H  0.11691210  0.92587167  0.41716371     0.06450
N309        N  0.45717350  0.61602059  0.42803309    -0.47350
H310        H  0.43331582  0.87207037  0.41624054     0.06440
C311        C  0.00176194  0.86629625  0.09754458     0.42140
C312        C  0.38529442  0.53671276  0.42503852    -0.06880
Co313      Co  0.44238384  0.93980727  0.00017474     0.73820
N314        N  0.04075112  0.88156981  0.42864683    -0.47070
C315        C  0.99727594  0.63278840  0.09682834     0.42400
N316        N  0.38580604  0.95888241  0.07613221    -0.47060
Co317      Co  0.05641186  0.94128559  0.00159821     0.73890
C318        C  0.11448548  0.96332466  0.07591608    -0.07390
C319        C  0.03121024  0.61804052  0.42400283    -0.06950
N320        N  0.40829700  0.52035825  0.04504675    -0.26480
N321        N  0.11360324  0.53752329  0.42496306    -0.47240
H322        H  0.07005671  0.62861957  0.07782376     0.06410
C323        C  0.46285077  0.87899029  0.07422205    -0.07360
Cl324      Cl  0.99915294  0.49915181  0.00067320    -0.50370
C325        C  0.50784499  0.86379988  0.40686851     0.42170
H326        H  0.37796840  0.57056251  0.08333367     0.06380
N327        N  0.03654484  0.88477738  0.07821468    -0.47080
C328        C  0.50719163  0.77146478  0.25338531     0.00120
C329        C  0.49167434  0.72684738  0.25306691     0.00120
C330        C  0.27210199  0.99798889  0.25013822     0.00120
C331        C  0.22631986  0.00022458  0.25005248     0.00120
C332        C  0.16290455  0.97474393  0.20447724    -0.02290
C333        C  0.19978290  0.00336333  0.21089106     0.07390
C334        C  0.20898282  0.53652037  0.18073185    -0.02400
C335        C  0.18680526  0.53601506  0.14312125    -0.02410
C336        C  0.15152717  0.00632330  0.13671105     0.07520
C337        C  0.13799321  0.97794108  0.16860520    -0.02600
Br338      Br  0.08289470  0.94585212  0.16486290    -0.01150
Br339      Br  0.14616054  0.92844297  0.24269298    -0.01220
Br340      Br  0.20585439  0.57548571  0.09998196    -0.01180
Br341      Br  0.24693536  0.58715979  0.19183979    -0.01160
C342        C  0.14789756  0.53651442  0.33606225    -0.02290
C343        C  0.15561053  0.00291181  0.36580432     0.07390
C344        C  0.18690198  0.96870666  0.35752936    -0.02400
C345        C  0.20663402  0.96546641  0.31903210    -0.02410
C346        C  0.20065035  0.00014614  0.28969535     0.07520
C347        C  0.16985472  0.53502477  0.29841738    -0.02600
Br348      Br  0.15746139  0.58244531  0.25975185    -0.01150
Br349      Br  0.10800862  0.58602056  0.34605868    -0.01220
Br350      Br  0.23592324  0.90940590  0.30551065    -0.01180
Br351      Br  0.20756027  0.92875542  0.39995006    -0.01160
C352        C  0.28950666  0.96205173  0.18074547    -0.02290
C353        C  0.29872827  0.99504734  0.21105587     0.07390
C354        C  0.33553536  0.52375483  0.20480305    -0.02400
C355        C  0.36032434  0.52090570  0.16885857    -0.02410
C356        C  0.34691083  0.99256285  0.13688498     0.07520
C357        C  0.31165573  0.96277670  0.14316402    -0.02600
Br358      Br  0.29256711  0.92353578  0.09984096    -0.01150
Br359      Br  0.25161110  0.91131200  0.19159847    -0.01220
Br360      Br  0.41510364  0.55352405  0.16505361    -0.01180
Br361      Br  0.35247508  0.56961962  0.24341327    -0.01160
C362        C  0.29147862  0.03238075  0.31934501    -0.02290
C363        C  0.29764279  0.99788265  0.28988705     0.07390
C364        C  0.32843099  0.46302905  0.29859715    -0.02400
C365        C  0.35039807  0.46149969  0.33627565    -0.02410
C366        C  0.34244447  0.99484562  0.36615274     0.07520
C367        C  0.31099721  0.02891331  0.35793592    -0.02600
Br368      Br  0.28994829  0.06838840  0.40051425    -0.01150
Br369      Br  0.26234969  0.08855651  0.30589752    -0.01220
Br370      Br  0.39092345  0.41247494  0.34608596    -0.01180
Br371      Br  0.34091021  0.41575156  0.25985841    -0.01160
C372        C  0.02998465  0.67635100  0.20155514    -0.02290
C373        C  0.49284050  0.70246522  0.21275059     0.07390
C374        C  0.45647950  0.70359942  0.18626371    -0.02400
C375        C  0.45911048  0.68373996  0.14743220    -0.02410
C376        C  0.49583958  0.65687229  0.13662634     0.07520
C377        C  0.03029118  0.65153367  0.16510497    -0.02600
Br378      Br  0.07472707  0.60494476  0.15877595    -0.01150
Br379      Br  0.07730586  0.66675837  0.23918831    -0.01220
Br380      Br  0.41230663  0.69498779  0.10920627    -0.01180
Br381      Br  0.40103486  0.72675477  0.20489391    -0.01160
C382        C  0.98265867  0.65120881  0.29284233    -0.02290
C383        C  0.47769817  0.69937085  0.29064103     0.07390
C384        C  0.45987196  0.71987882  0.32604903    -0.02400
C385        C  0.46413641  0.69843726  0.36405739    -0.02410
C386        C  0.48311764  0.65522940  0.36641507     0.07520
C387        C  0.98800509  0.62996840  0.33077531    -0.02600
Br388      Br  0.99538471  0.56498898  0.33447406    -0.01150
Br389      Br  0.96848759  0.61129843  0.24845492    -0.01220
Br390      Br  0.44254222  0.72716234  0.41282283    -0.01200
Br391      Br  0.42321140  0.77254466  0.32321632    -0.01160
C392        C  0.46928015  0.84816790  0.16601702    -0.02290
C393        C  0.50346832  0.84245646  0.13742036     0.07390
C394        C  0.04009269  0.81538933  0.14814714    -0.02400
C395        C  0.04269962  0.79543638  0.18694244    -0.02410
C396        C  0.50628219  0.79643709  0.21332882     0.07520
C397        C  0.46938577  0.82305632  0.20229384    -0.02600
Br398      Br  0.42210101  0.83277470  0.23980155    -0.01150
Br399      Br  0.42567868  0.89567302  0.16005064    -0.01220
Br400      Br  0.09828099  0.77280913  0.20579130    -0.01180
Br401      Br  0.08678282  0.80403701  0.10990705    -0.01160
C402        C  0.51647316  0.84660837  0.29380211    -0.02290
C403        C  0.52080953  0.79840719  0.29139214     0.07390
C404        C  0.03771178  0.77738220  0.32696582    -0.02400
C405        C  0.03289709  0.79854529  0.36503811    -0.02410
C406        C  0.51456131  0.84205615  0.36732627     0.07520
C407        C  0.51070595  0.86764421  0.33175505    -0.02600
Br408      Br  0.50408667  0.93269538  0.33567328    -0.01150
Br409      Br  0.53212157  0.88660241  0.24991070    -0.01220
Br410      Br  0.05304825  0.76909141  0.41401111    -0.01180
Br411      Br  0.07426144  0.72457831  0.32434016    -0.01160
C412        C  0.36877279  0.99640597  0.90447336     0.42020
N413        N  0.40799393  0.97657074  0.95598675     0.00910
C414        C  0.03598933  0.61995569  0.57333847    -0.06970
H415        H  0.06453686  0.62549309  0.91528191     0.06400
C416        C  0.11263793  0.96118004  0.92477578    -0.07320
Co417      Co  0.44193555  0.55702154  0.00154448     0.74180
N418        N  0.01905712  0.59265392  0.95578694    -0.26500
Co419      Co  0.05596277  0.55849514  0.99968153     0.74070
C420        C  0.12922717  0.00140388  0.90408076     0.42120
N421        N  0.02230731  0.90555243  0.95787391     0.00520
N422        N  0.09013415  0.52145801  0.95559096     0.00630
N423        N  0.46235449  0.61408166  0.57781017    -0.47350
H424        H  0.38092791  0.57198405  0.91731593     0.06380
N425        N  0.47578302  0.59240315  0.95744584     0.00910
N426        N  0.09032720  0.52284843  0.54475442     0.00650
C427        C  0.12883935  0.50411668  0.59680840     0.42260
N428        N  0.47902533  0.90529616  0.95635739    -0.25960
C429        C  0.38409365  0.53539768  0.57607008    -0.06880
N430        N  0.38446840  0.96035737  0.92541908    -0.47060
N431        N  0.11274899  0.53984082  0.57570804    -0.47290
C432        C  0.36968907  0.49469037  0.59708865     0.42030
N433        N  0.47781689  0.59140143  0.54615941     0.00900
N434        N  0.47770001  0.90514496  0.54422355    -0.25980
N435        N  0.40848921  0.52119192  0.95665177    -0.26470
N436        N  0.02083279  0.90720899  0.54650728     0.00540
H437        H  0.42880744  0.87047101  0.57905148     0.06430
H438        H  0.12054478  0.92819467  0.58337050     0.06460
N439        N  0.02092429  0.59349245  0.54363451    -0.26520
N440        N  0.08958962  0.97684295  0.95639800    -0.26130
N441        N  0.40823593  0.97573119  0.54515706     0.00900
C442        C  0.48996742  0.63350907  0.90597215     0.42300
C443        C  0.46669497  0.87956450  0.92483263    -0.07380
N444        N  0.09027357  0.97822006  0.54481276    -0.26130
H445        H  0.11691210  0.92587169  0.91716371     0.06450
N446        N  0.45717350  0.61602058  0.92803309    -0.47350
H447        H  0.43331582  0.87207037  0.91624054     0.06440
C448        C  0.00176194  0.86629625  0.59754459     0.42140
C449        C  0.38529442  0.53671274  0.92503852    -0.06880
Co450      Co  0.44238384  0.93980727  0.50017474     0.73820
N451        N  0.04075112  0.88156982  0.92864683    -0.47070
C452        C  0.99727594  0.63278841  0.59682834     0.42400
N453        N  0.38580605  0.95888241  0.57613221    -0.47060
Co454      Co  0.05641186  0.94128558  0.50159821     0.73890
C455        C  0.11448548  0.96332467  0.57591609    -0.07390
C456        C  0.03121023  0.61804051  0.92400284    -0.06950
N457        N  0.40829701  0.52035827  0.54504675    -0.26480
N458        N  0.11360324  0.53752329  0.92496307    -0.47240
H459        H  0.07005672  0.62861959  0.57782374     0.06410
C460        C  0.46285077  0.87899029  0.57422206    -0.07360
Cl461      Cl  0.99915294  0.49915182  0.50067320    -0.50370
C462        C  0.50784499  0.86379989  0.90686851     0.42170
H463        H  0.37796841  0.57056253  0.58333367     0.06380
N464        N  0.03654484  0.88477737  0.57821469    -0.47080
C465        C  0.50719164  0.77146478  0.75338532     0.00120
C466        C  0.49167435  0.72684738  0.75306692     0.00120
C467        C  0.27210199  0.99798893  0.75013822     0.00120
C468        C  0.22631987  0.00022462  0.75005248     0.00120
C469        C  0.16290455  0.97474395  0.70447725    -0.02290
C470        C  0.19978290  0.00336336  0.71089106     0.07390
C471        C  0.20898282  0.53652038  0.68073186    -0.02400
C472        C  0.18680526  0.53601508  0.64312125    -0.02410
C473        C  0.15152717  0.00632331  0.63671105     0.07520
C474        C  0.13799321  0.97794110  0.66860520    -0.02600
Br475      Br  0.08289470  0.94585214  0.66486291    -0.01150
Br476      Br  0.14616054  0.92844300  0.74269299    -0.01220
Br477      Br  0.20585439  0.57548572  0.59998196    -0.01180
Br478      Br  0.24693536  0.58715980  0.69183980    -0.01160
C479        C  0.14789757  0.53651443  0.83606225    -0.02290
C480        C  0.15561053  0.00291184  0.86580433     0.07390
C481        C  0.18690199  0.96870669  0.85752936    -0.02400
C482        C  0.20663403  0.96546644  0.81903211    -0.02410
C483        C  0.20065035  0.00014617  0.78969535     0.07520
C484        C  0.16985473  0.53502478  0.79841739    -0.02600
Br485      Br  0.15746140  0.58244532  0.75975186    -0.01150
Br486      Br  0.10800864  0.58602057  0.84605869    -0.01220
Br487      Br  0.23592325  0.90940593  0.80551065    -0.01180
Br488      Br  0.20756027  0.92875544  0.89995006    -0.01160
C489        C  0.28950666  0.96205176  0.68074548    -0.02290
C490        C  0.29872827  0.99504737  0.71105587     0.07390
C491        C  0.33553536  0.52375484  0.70480305    -0.02400
C492        C  0.36032434  0.52090572  0.66885857    -0.02410
C493        C  0.34691083  0.99256287  0.63688498     0.07520
C494        C  0.31165573  0.96277672  0.64316402    -0.02600
Br495      Br  0.29256712  0.92353580  0.59984097    -0.01150
Br496      Br  0.25161110  0.91131203  0.69159848    -0.01220
Br497      Br  0.41510363  0.55352407  0.66505361    -0.01180
Br498      Br  0.35247508  0.56961963  0.74341327    -0.01160
C499        C  0.29147863  0.03238078  0.81934501    -0.02290
C500        C  0.29764279  0.99788269  0.78988705     0.07390
C501        C  0.32843099  0.46302905  0.79859714    -0.02400
C502        C  0.35039807  0.46149968  0.83627565    -0.02410
C503        C  0.34244448  0.99484565  0.86615273     0.07520
C504        C  0.31099721  0.02891334  0.85793592    -0.02600
Br505      Br  0.28994829  0.06838842  0.90051426    -0.01150
Br506      Br  0.26234970  0.08855654  0.80589753    -0.01220
Br507      Br  0.39092343  0.41247492  0.84608596    -0.01180
Br508      Br  0.34091022  0.41575157  0.75985840    -0.01160
C509        C  0.02998467  0.67635101  0.70155514    -0.02290
C510        C  0.49284050  0.70246522  0.71275059     0.07390
C511        C  0.45647950  0.70359941  0.68626372    -0.02400
C512        C  0.45911048  0.68373995  0.64743220    -0.02410
C513        C  0.49583958  0.65687230  0.63662634     0.07520
C514        C  0.03029119  0.65153369  0.66510496    -0.02600
Br515      Br  0.07472710  0.60494480  0.65877593    -0.01150
Br516      Br  0.07730588  0.66675839  0.73918830    -0.01220
Br517      Br  0.41230662  0.69498777  0.60920628    -0.01180
Br518      Br  0.40103486  0.72675474  0.70489393    -0.01160
C519        C  0.98265869  0.65120880  0.79284233    -0.02290
C520        C  0.47769818  0.69937084  0.79064103     0.07390
C521        C  0.45987196  0.71987880  0.82604904    -0.02400
C522        C  0.46413641  0.69843725  0.86405740    -0.02410
C523        C  0.48311764  0.65522939  0.86641507     0.07520
C524        C  0.98800510  0.62996839  0.83077531    -0.02600
Br525      Br  0.99538473  0.56498897  0.83447407    -0.01150
Br526      Br  0.96848764  0.61129841  0.74845492    -0.01220
Br527      Br  0.44254221  0.72716232  0.91282283    -0.01200
Br528      Br  0.42321140  0.77254465  0.82321632    -0.01160
C529        C  0.46928014  0.84816790  0.66601702    -0.02290
C530        C  0.50346832  0.84245646  0.63742037     0.07390
C531        C  0.04009269  0.81538933  0.64814715    -0.02400
C532        C  0.04269962  0.79543638  0.68694245    -0.02410
C533        C  0.50628219  0.79643709  0.71332883     0.07520
C534        C  0.46938576  0.82305631  0.70229384    -0.02600
Br535      Br  0.42210100  0.83277468  0.73980156    -0.01150
Br536      Br  0.42567867  0.89567300  0.66005065    -0.01220
Br537      Br  0.09828100  0.77280915  0.70579132    -0.01180
Br538      Br  0.08678283  0.80403701  0.60990706    -0.01160
C539        C  0.51647317  0.84660837  0.79380211    -0.02290
C540        C  0.52080954  0.79840719  0.79139215     0.07390
C541        C  0.03771177  0.77738220  0.82696582    -0.02400
C542        C  0.03289708  0.79854529  0.86503811    -0.02410
C543        C  0.51456131  0.84205615  0.86732627     0.07520
C544        C  0.51070596  0.86764421  0.83175505    -0.02600
Br545      Br  0.50408669  0.93269539  0.83567327    -0.01150
Br546      Br  0.53212158  0.88660240  0.74991069    -0.01220
Br547      Br  0.05304823  0.76909142  0.91401112    -0.01180
Br548      Br  0.07426143  0.72457831  0.82434017    -0.01160
C549        C  0.86873438  0.49640374  0.40447525     0.42020
N550        N  0.90795743  0.47657077  0.45598814     0.00910
C551        C  0.53602403  0.11995587  0.07333813    -0.06970
H552        H  0.56457252  0.12549268  0.41528221     0.06400
C553        C  0.61260025  0.46118023  0.42477524    -0.07320
Co554      Co  0.94197210  0.05702007  0.50154430     0.74180
N555        N  0.51909368  0.09265256  0.45578736    -0.26500
Co556      Co  0.55599890  0.05849370  0.49968219     0.74070
C557        C  0.62918875  0.50140323  0.40407896     0.42120
N558        N  0.52227165  0.40555434  0.45787482     0.00520
N559        N  0.59017084  0.02145682  0.45559224     0.00630
N560        N  0.96238956  0.11407939  0.07780947    -0.47350
H561        H  0.88096614  0.07198549  0.41731612     0.06380
N562        N  0.97581966  0.09240146  0.45744653     0.00910
N563        N  0.59036243  0.02284674  0.04475516     0.00650
C564        C  0.62887393  0.00411596  0.09680975     0.42260
N565        N  0.97898976  0.40529722  0.45635811    -0.25960
C566        C  0.88412917  0.03539787  0.07606842    -0.06880
N567        N  0.88443113  0.46035624  0.42542155    -0.47060
N568        N  0.61278365  0.03983961  0.07570886    -0.47290
C569        C  0.86972408  0.99469123  0.09708739     0.42030
N570        N  0.97785281  0.09139895  0.04615943     0.00900
N571        N  0.97766533  0.40514632  0.04422407    -0.25980
N572        N  0.90852611  0.02119182  0.45665122    -0.26470
N573        N  0.52079795  0.40721194  0.04650741     0.00540
H574        H  0.92877469  0.37046852  0.07905075     0.06430
H575        H  0.62050980  0.42819573  0.08336845     0.06460
N576        N  0.52096007  0.09349104  0.04363480    -0.26520
N577        N  0.58955289  0.47684420  0.45639750    -0.26130
N578        N  0.90820070  0.47573173  0.04515786     0.00900
C579        C  0.99000280  0.13350705  0.40597253     0.42300
C580        C  0.96666026  0.37956510  0.42483333    -0.07380
N581        N  0.59023823  0.47822184  0.04481180    -0.26130
H582        H  0.61687427  0.42587169  0.41716386     0.06450
N583        N  0.95720960  0.11601840  0.42803398    -0.47350
H584        H  0.93328142  0.37206971  0.41624140     0.06440
C585        C  0.50172963  0.36629766  0.09754445     0.42140
C586        C  0.88533232  0.03671394  0.42503797    -0.06880
Co587      Co  0.94234831  0.43980804  0.00017559     0.73820
N588        N  0.54071618  0.38157216  0.42864806    -0.47070
C589        C  0.49730994  0.13278792  0.09682772     0.42400
N590        N  0.88577138  0.45888217  0.07613297    -0.47060
Co591      Co  0.55637596  0.44128780  0.00159813     0.73890
C592        C  0.61445058  0.46332586  0.07591450    -0.07390
C593        C  0.53124614  0.11803927  0.42400307    -0.06950
N594        N  0.90833275  0.02035760  0.04504570    -0.26480
N595        N  0.61364080  0.03752300  0.42496538    -0.47240
H596        H  0.57009100  0.12862207  0.07782206     0.06410
C597        C  0.96281753  0.37899027  0.07422225    -0.07360
Cl598      Cl  0.49918917  0.99915012  0.00067314    -0.50370
C599        C  0.00781091  0.36380150  0.40686942     0.42170
H600        H  0.87800428  0.07056293  0.08333142     0.06380
N601        N  0.53651119  0.38478068  0.07821424    -0.47080
C602        C  0.00718340  0.27146849  0.25338509     0.00120
C603        C  0.99168436  0.22684438  0.25306652     0.00120
C604        C  0.77206590  0.49798360  0.25013881     0.00120
C605        C  0.72628379  0.50021988  0.25005197     0.00120
C606        C  0.66286905  0.47474091  0.20447533    -0.02290
C607        C  0.69974792  0.50335939  0.21088991     0.07390
C608        C  0.70901689  0.03652382  0.18073242    -0.02400
C609        C  0.68683933  0.03601692  0.14312183    -0.02410
C610        C  0.65149235  0.50632265  0.13670987     0.07520
C611        C  0.63795780  0.47793973  0.16860335    -0.02600
Br612      Br  0.58285854  0.44585218  0.16486045    -0.01150
Br613      Br  0.64612381  0.42843929  0.24269010    -0.01220
Br614      Br  0.70588775  0.07548686  0.09998177    -0.01180
Br615      Br  0.74696848  0.08716425  0.19183946    -0.01160
C616        C  0.64793935  0.03652008  0.33606650    -0.02290
C617        C  0.65557121  0.50290923  0.36580212     0.07390
C618        C  0.68686409  0.46870489  0.35752891    -0.02400
C619        C  0.70659604  0.46546299  0.31903175    -0.02410
C620        C  0.70061306  0.50014198  0.28969428     0.07520
C621        C  0.66989318  0.03502955  0.29842001    -0.02600
Br622      Br  0.65749596  0.08244939  0.25975413    -0.01150
Br623      Br  0.60806187  0.08603438  0.34606897    -0.01220
Br624      Br  0.73588385  0.40940140  0.30551146    -0.01180
Br625      Br  0.70752333  0.42875636  0.39995120    -0.01160
C626        C  0.78947187  0.46204747  0.18074601    -0.02290
C627        C  0.79869331  0.49504221  0.21105713     0.07390
C628        C  0.83557011  0.02375996  0.20480089    -0.02400
C629        C  0.86035913  0.02090954  0.16885652    -0.02410
C630        C  0.84687584  0.49256038  0.13688620     0.07520
C631        C  0.81162092  0.46277374  0.14316454    -0.02600
Br632      Br  0.79253237  0.42353412  0.09984055    -0.01150
Br633      Br  0.75157599  0.41130768  0.19159787    -0.01220
Br634      Br  0.91513831  0.05352807  0.16505095    -0.01180
Br635      Br  0.85250985  0.06962608  0.24341000    -0.01160
C636        C  0.79144121  0.53237646  0.31934536    -0.02290
C637        C  0.79760540  0.49787737  0.28988826     0.07390
C638        C  0.82847044  0.96303572  0.29859413    -0.02400
C639        C  0.85044092  0.96150756  0.33627095    -0.02410
C640        C  0.84240485  0.49484130  0.36615518     0.07520
C641        C  0.81095954  0.52891031  0.35793648    -0.02600
Br642      Br  0.78991147  0.56838817  0.40051318    -0.01150
Br643      Br  0.76231247  0.58855192  0.30589639    -0.01220
Br644      Br  0.89097905  0.91249231  0.34607481    -0.01180
Br645      Br  0.84094688  0.91575802  0.25985557    -0.01160
C646        C  0.53001102  0.17636174  0.20155372    -0.02290
C647        C  0.99285858  0.20246305  0.21275027     0.07390
C648        C  0.95649695  0.20358606  0.18626412    -0.02400
C649        C  0.95913384  0.18373015  0.14743177    -0.02410
C650        C  0.99587032  0.15687347  0.13662493     0.07520
C651        C  0.53032421  0.15154511  0.16510304    -0.02600
Br652      Br  0.57477400  0.10497032  0.15877362    -0.01150
Br653      Br  0.57733657  0.16678357  0.23918597    -0.01220
Br654      Br  0.91232694  0.19496874  0.10920665    -0.01180
Br655      Br  0.90104466  0.22671962  0.20489676    -0.01160
C656        C  0.48269469  0.15120268  0.29284218    -0.02290
C657        C  0.97771732  0.19936285  0.29064027     0.07390
C658        C  0.95988295  0.21986489  0.32604733    -0.02400
C659        C  0.96415457  0.19842612  0.36405610    -0.02410
C660        C  0.98315071  0.15522515  0.36641494     0.07520
C661        C  0.48804720  0.12996494  0.33077565    -0.02600
Br662      Br  0.49544491  0.06498768  0.33447554    -0.01150
Br663      Br  0.46853848  0.11128630  0.24845479    -0.01220
Br664      Br  0.94255010  0.22714561  0.41282038    -0.01200
Br665      Br  0.92320268  0.27251609  0.32321231    -0.01160
C666        C  0.96924907  0.34815828  0.16601576    -0.02290
C667        C  0.00343950  0.34245671  0.13741958     0.07390
C668        C  0.54007132  0.31540058  0.14814735    -0.02400
C669        C  0.54268406  0.29545108  0.18694345    -0.02410
C670        C  0.00626587  0.29644035  0.21332889     0.07520
C671        C  0.96936111  0.32304697  0.20229283    -0.02600
Br672      Br  0.92207162  0.33275069  0.23979935    -0.01150
Br673      Br  0.92563460  0.39565077  0.16004951    -0.01220
Br674      Br  0.59827283  0.27284573  0.20579495    -0.01180
Br675      Br  0.58676471  0.30405776  0.10990821    -0.01160
C676        C  0.01643801  0.34661509  0.29380246    -0.02290
C677        C  0.02079205  0.29841564  0.29139172     0.07390
C678        C  0.53770302  0.27739636  0.32696438    -0.02400
C679        C  0.53288142  0.29855645  0.36503711    -0.02410
C680        C  0.01452963  0.34206019  0.36732659     0.07520
C681        C  0.01066401  0.36764776  0.33175590    -0.02600
Br682      Br  0.00402390  0.43269670  0.33567530    -0.01150
Br683      Br  0.03207219  0.38661617  0.24991160    -0.01220
Br684      Br  0.55304446  0.26910827  0.41400879    -0.01180
Br685      Br  0.57427230  0.22460695  0.32433634    -0.01160
C686        C  0.86873437  0.49640373  0.90447525     0.42020
N687        N  0.90795743  0.47657075  0.95598814     0.00910
C688        C  0.53602403  0.11995588  0.57333811    -0.06970
H689        H  0.56457252  0.12549269  0.91528223     0.06400
C690        C  0.61260025  0.46118022  0.92477524    -0.07320
Co691      Co  0.94197210  0.05702008  0.00154431     0.74180
N692        N  0.51909368  0.09265258  0.95578737    -0.26500
Co693      Co  0.55599890  0.05849371  0.99968220     0.74070
C694        C  0.62918875  0.50140323  0.90407896     0.42120
N695        N  0.52227164  0.40555433  0.95787482     0.00520
N696        N  0.59017084  0.02145684  0.95559225     0.00630
N697        N  0.96238956  0.11407939  0.57780946    -0.47350
H698        H  0.88096614  0.07198551  0.91731613     0.06380
N699        N  0.97581966  0.09240147  0.95744654     0.00910
N700        N  0.59036243  0.02284674  0.54475515     0.00650
C701        C  0.62887393  0.00411597  0.59680975     0.42260
N702        N  0.97898976  0.40529721  0.95635811    -0.25960
C703        C  0.88412918  0.03539787  0.57606842    -0.06880
N704        N  0.88443113  0.46035623  0.92542155    -0.47060
N705        N  0.61278365  0.03983962  0.57570885    -0.47290
C706        C  0.86972408  0.99469124  0.59708739     0.42030
N707        N  0.97785282  0.09139894  0.54615942     0.00900
N708        N  0.97766533  0.40514634  0.54422407    -0.25980
N709        N  0.90852611  0.02119183  0.95665122    -0.26470
N710        N  0.52079795  0.40721196  0.54650741     0.00540
H711        H  0.92877469  0.37046852  0.57905074     0.06430
H712        H  0.62050980  0.42819574  0.58336846     0.06460
N713        N  0.52096007  0.09349104  0.54363478    -0.26520
N714        N  0.58955289  0.47684419  0.95639750    -0.26130
N715        N  0.90820070  0.47573174  0.54515786     0.00900
C716        C  0.99000280  0.13350706  0.90597254     0.42300
C717        C  0.96666026  0.37956509  0.92483333    -0.07380
N718        N  0.59023823  0.47822186  0.54481180    -0.26130
H719        H  0.61687427  0.42587168  0.91716385     0.06450
N720        N  0.95720961  0.11601841  0.92803398    -0.47350
H721        H  0.93328141  0.37206970  0.91624140     0.06440
C722        C  0.50172963  0.36629767  0.59754445     0.42140
C723        C  0.88533232  0.03671396  0.92503797    -0.06880
Co724      Co  0.94234831  0.43980805  0.50017559     0.73820
N725        N  0.54071618  0.38157215  0.92864805    -0.47070
C726        C  0.49730994  0.13278792  0.59682770     0.42400
N727        N  0.88577138  0.45888219  0.57613297    -0.47060
Co728      Co  0.55637596  0.44128782  0.50159814     0.73890
C729        C  0.61445058  0.46332588  0.57591450    -0.07390
C730        C  0.53124614  0.11803928  0.92400308    -0.06950
N731        N  0.90833275  0.02035760  0.54504570    -0.26480
N732        N  0.61364080  0.03752302  0.92496539    -0.47240
H733        H  0.57009100  0.12862208  0.57782203     0.06410
C734        C  0.96281753  0.37899028  0.57422225    -0.07360
Cl735      Cl  0.49918917  0.99915011  0.50067314    -0.50370
C736        C  0.00781091  0.36380149  0.90686941     0.42170
H737        H  0.87800428  0.07056294  0.58333141     0.06380
N738        N  0.53651119  0.38478069  0.57821424    -0.47080
C739        C  0.00718339  0.27146848  0.75338509     0.00120
C740        C  0.99168436  0.22684438  0.75306651     0.00120
C741        C  0.77206590  0.49798361  0.75013881     0.00120
C742        C  0.72628379  0.50021989  0.75005197     0.00120
C743        C  0.66286904  0.47474092  0.70447533    -0.02290
C744        C  0.69974792  0.50335940  0.71088991     0.07390
C745        C  0.70901688  0.03652384  0.68073242    -0.02400
C746        C  0.68683933  0.03601694  0.64312183    -0.02410
C747        C  0.65149235  0.50632267  0.63670987     0.07520
C748        C  0.63795779  0.47793975  0.66860335    -0.02600
Br749      Br  0.58285853  0.44585220  0.66486046    -0.01150
Br750      Br  0.64612380  0.42843930  0.74269010    -0.01220
Br751      Br  0.70588775  0.07548688  0.59998176    -0.01180
Br752      Br  0.74696847  0.08716428  0.69183945    -0.01160
C753        C  0.64793937  0.03652012  0.83606651    -0.02290
C754        C  0.65557122  0.50290923  0.86580213     0.07390
C755        C  0.68686409  0.46870489  0.85752891    -0.02400
C756        C  0.70659604  0.46546299  0.81903175    -0.02410
C757        C  0.70061306  0.50014199  0.78969428     0.07520
C758        C  0.66989319  0.03502959  0.79842002    -0.02600
Br759      Br  0.65749596  0.08244943  0.75975414    -0.01150
Br760      Br  0.60806192  0.08603445  0.84606899    -0.01220
Br761      Br  0.73588384  0.40940141  0.80551145    -0.01180
Br762      Br  0.70752333  0.42875635  0.89995119    -0.01160
C763        C  0.78947187  0.46204748  0.68074601    -0.02290
C764        C  0.79869331  0.49504222  0.71105713     0.07390
C765        C  0.83557011  0.02376000  0.70480088    -0.02400
C766        C  0.86035913  0.02090956  0.66885651    -0.02410
C767        C  0.84687585  0.49256040  0.63688620     0.07520
C768        C  0.81162092  0.46277376  0.64316454    -0.02600
Br769      Br  0.79253237  0.42353414  0.59984055    -0.01150
Br770      Br  0.75157598  0.41130770  0.69159787    -0.01220
Br771      Br  0.91513830  0.05352810  0.66505094    -0.01180
Br772      Br  0.85250985  0.06962612  0.74340999    -0.01160
C773        C  0.79144121  0.53237646  0.81934536    -0.02290
C774        C  0.79760540  0.49787737  0.78988826     0.07390
C775        C  0.82847045  0.96303575  0.79859412    -0.02400
C776        C  0.85044092  0.96150759  0.83627095    -0.02410
C777        C  0.84240484  0.49484130  0.86615518     0.07520
C778        C  0.81095954  0.52891030  0.85793648    -0.02600
Br779      Br  0.78991146  0.56838816  0.90051319    -0.01150
Br780      Br  0.76231247  0.58855192  0.80589640    -0.01220
Br781      Br  0.89097906  0.91249235  0.84607480    -0.01180
Br782      Br  0.84094688  0.91575806  0.75985556    -0.01160
C783        C  0.53001104  0.17636176  0.70155369    -0.02290
C784        C  0.99285858  0.20246305  0.71275026     0.07390
C785        C  0.95649695  0.20358604  0.68626412    -0.02400
C786        C  0.95913384  0.18373014  0.64743177    -0.02410
C787        C  0.99587032  0.15687347  0.63662492     0.07520
C788        C  0.53032424  0.15154514  0.66510302    -0.02600
Br789      Br  0.57477406  0.10497038  0.65877358    -0.01150
Br790      Br  0.57733661  0.16678362  0.73918594    -0.01220
Br791      Br  0.91232692  0.19496870  0.60920666    -0.01180
Br792      Br  0.90104465  0.22671957  0.70489678    -0.01160
C793        C  0.48269474  0.15120266  0.79284219    -0.02290
C794        C  0.97771733  0.19936284  0.79064026     0.07390
C795        C  0.95988295  0.21986488  0.82604732    -0.02400
C796        C  0.96415457  0.19842612  0.86405610    -0.02410
C797        C  0.98315071  0.15522516  0.86641494     0.07520
C798        C  0.48804723  0.12996494  0.83077566    -0.02600
Br799      Br  0.49544497  0.06498768  0.83447556    -0.01150
Br800      Br  0.46853858  0.11128626  0.74845479    -0.01220
Br801      Br  0.94255008  0.22714561  0.91282037    -0.01200
Br802      Br  0.92320267  0.27251608  0.82321229    -0.01160
C803        C  0.96924906  0.34815827  0.66601575    -0.02290
C804        C  0.00343950  0.34245671  0.63741958     0.07390
C805        C  0.54007132  0.31540060  0.64814735    -0.02400
C806        C  0.54268406  0.29545110  0.68694345    -0.02410
C807        C  0.00626587  0.29644034  0.71332888     0.07520
C808        C  0.96936110  0.32304696  0.70229282    -0.02600
Br809      Br  0.92207160  0.33275066  0.73979933    -0.01150
Br810      Br  0.92563458  0.39565075  0.66004951    -0.01220
Br811      Br  0.59827284  0.27284579  0.70579497    -0.01180
Br812      Br  0.58676473  0.30405780  0.60990822    -0.01160
C813        C  0.01643799  0.34661509  0.79380245    -0.02290
C814        C  0.02079204  0.29841564  0.79139171     0.07390
C815        C  0.53770301  0.27739636  0.82696437    -0.02400
C816        C  0.53288141  0.29855645  0.86503710    -0.02410
C817        C  0.01452962  0.34206019  0.86732659     0.07520
C818        C  0.01066400  0.36764775  0.83175589    -0.02600
Br819      Br  0.00402389  0.43269670  0.83567529    -0.01150
Br820      Br  0.03207216  0.38661617  0.74991159    -0.01220
Br821      Br  0.55304445  0.26910826  0.91400878    -0.01180
Br822      Br  0.57427230  0.22460696  0.82433633    -0.01160
C823        C  0.86877279  0.99640594  0.40447336     0.42020
N824        N  0.90799393  0.97657072  0.45598675     0.00910
C825        C  0.53598934  0.61995568  0.07333847    -0.06970
H826        H  0.56453687  0.62549310  0.41528189     0.06400
C827        C  0.61263793  0.96118003  0.42477578    -0.07320
Co828      Co  0.94193555  0.55702154  0.50154448     0.74180
N829        N  0.51905713  0.59265394  0.45578693    -0.26500
Co830      Co  0.55596278  0.55849516  0.49968152     0.74070
C831        C  0.62922717  0.00140386  0.40408076     0.42120
N832        N  0.52230731  0.90555243  0.45787392     0.00520
N833        N  0.59013416  0.52145802  0.45559096     0.00630
N834        N  0.96235446  0.61408163  0.07781018    -0.47350
H835        H  0.88092791  0.57198404  0.41731593     0.06380
N836        N  0.97578301  0.59240315  0.45744584     0.00910
N837        N  0.59032720  0.52284842  0.04475442     0.00650
C838        C  0.62883936  0.50411666  0.09680840     0.42260
N839        N  0.97902533  0.90529614  0.45635740    -0.25960
C840        C  0.88409363  0.53539764  0.07607008    -0.06880
N841        N  0.88446840  0.96035735  0.42541909    -0.47060
N842        N  0.61274900  0.53984080  0.07570804    -0.47290
C843        C  0.86968906  0.49469032  0.09708865     0.42030
N844        N  0.97781687  0.59140140  0.04615942     0.00900
N845        N  0.97770001  0.90514495  0.04422354    -0.25980
N846        N  0.90848921  0.52119192  0.45665177    -0.26470
N847        N  0.52083279  0.90720900  0.04650727     0.00540
H848        H  0.92880744  0.87047101  0.07905148     0.06430
H849        H  0.62054478  0.92819467  0.08337049     0.06460
N850        N  0.52092430  0.59349244  0.04363451    -0.26520
N851        N  0.58958962  0.97684294  0.45639800    -0.26130
N852        N  0.90823592  0.97573118  0.04515705     0.00900
C853        C  0.98996741  0.63350907  0.40597215     0.42300
C854        C  0.96669497  0.87956449  0.42483264    -0.07380
N855        N  0.59027357  0.97822007  0.04481276    -0.26130
H856        H  0.61691209  0.92587168  0.41716371     0.06450
N857        N  0.95717349  0.61602058  0.42803309    -0.47350
H858        H  0.93331582  0.87207036  0.41624054     0.06440
C859        C  0.50176194  0.86629626  0.09754458     0.42140
C860        C  0.88529442  0.53671274  0.42503852    -0.06880
Co861      Co  0.94238384  0.93980727  0.00017474     0.73820
N862        N  0.54075111  0.88156981  0.42864684    -0.47070
C863        C  0.49727596  0.63278841  0.09682834     0.42400
N864        N  0.88580605  0.95888240  0.07613221    -0.47060
Co865      Co  0.55641185  0.94128560  0.00159820     0.73890
C866        C  0.61448548  0.96332467  0.07591608    -0.07390
C867        C  0.53121025  0.61804053  0.42400282    -0.06950
N868        N  0.90829700  0.52035823  0.04504675    -0.26480
N869        N  0.61360325  0.53752329  0.42496306    -0.47240
H870        H  0.57005673  0.62861959  0.07782374     0.06410
C871        C  0.96285076  0.87899029  0.07422205    -0.07360
Cl872      Cl  0.49915295  0.49915182  0.00067320    -0.50370
C873        C  0.00784499  0.86379987  0.40686851     0.42170
H874        H  0.87796839  0.57056248  0.08333367     0.06380
N875        N  0.53654484  0.88477739  0.07821468    -0.47080
C876        C  0.00719163  0.77146477  0.25338531     0.00120
C877        C  0.99167433  0.72684737  0.25306692     0.00120
C878        C  0.77210199  0.99798889  0.25013822     0.00120
C879        C  0.72631986  0.00022459  0.25005248     0.00120
C880        C  0.66290455  0.97474393  0.20447724    -0.02290
C881        C  0.69978290  0.00336333  0.21089106     0.07390
C882        C  0.70898283  0.53652036  0.18073185    -0.02400
C883        C  0.68680526  0.53601506  0.14312125    -0.02410
C884        C  0.65152717  0.00632330  0.13671105     0.07520
C885        C  0.63799322  0.97794108  0.16860520    -0.02600
Br886      Br  0.58289470  0.94585213  0.16486290    -0.01150
Br887      Br  0.64616054  0.92844297  0.24269298    -0.01220
Br888      Br  0.70585440  0.57548569  0.09998196    -0.01180
Br889      Br  0.74693537  0.58715977  0.19183979    -0.01160
C890        C  0.64789757  0.53651442  0.33606225    -0.02290
C891        C  0.65561053  0.00291182  0.36580432     0.07390
C892        C  0.68690198  0.96870666  0.35752936    -0.02400
C893        C  0.70663402  0.96546641  0.31903210    -0.02410
C894        C  0.70065035  0.00014614  0.28969535     0.07520
C895        C  0.66985473  0.53502477  0.29841738    -0.02600
Br896      Br  0.65746140  0.58244531  0.25975185    -0.01150
Br897      Br  0.60800866  0.58602058  0.34605869    -0.01220
Br898      Br  0.73592324  0.90940590  0.30551065    -0.01180
Br899      Br  0.70756026  0.92875542  0.39995006    -0.01160
C900        C  0.78950666  0.96205173  0.18074547    -0.02290
C901        C  0.79872827  0.99504734  0.21105587     0.07390
C902        C  0.83553537  0.52375480  0.20480305    -0.02400
C903        C  0.86032434  0.52090567  0.16885857    -0.02410
C904        C  0.84691083  0.99256285  0.13688498     0.07520
C905        C  0.81165573  0.96277670  0.14316402    -0.02600
Br906      Br  0.79256711  0.92353578  0.09984096    -0.01150
Br907      Br  0.75161110  0.91131200  0.19159847    -0.01220
Br908      Br  0.91510365  0.55352400  0.16505361    -0.01180
Br909      Br  0.85247509  0.56961959  0.24341327    -0.01160
C910        C  0.79147862  0.03238075  0.31934501    -0.02290
C911        C  0.79764279  0.99788265  0.28988705     0.07390
C912        C  0.82843099  0.46302902  0.29859715    -0.02400
C913        C  0.85039807  0.46149966  0.33627566    -0.02410
C914        C  0.84244447  0.99484562  0.36615273     0.07520
C915        C  0.81099721  0.02891330  0.35793592    -0.02600
Br916      Br  0.78994829  0.06838839  0.40051426    -0.01150
Br917      Br  0.76234969  0.08855650  0.30589753    -0.01220
Br918      Br  0.89092344  0.41247490  0.34608596    -0.01180
Br919      Br  0.84091020  0.41575153  0.25985841    -0.01160
C920        C  0.52998468  0.67635103  0.20155513    -0.02290
C921        C  0.99284048  0.70246521  0.21275059     0.07390
C922        C  0.95647948  0.70359942  0.18626370    -0.02400
C923        C  0.95911047  0.68373995  0.14743220    -0.02410
C924        C  0.99583955  0.65687227  0.13662635     0.07520
C925        C  0.53029121  0.65153370  0.16510495    -0.02600
Br926      Br  0.57472711  0.60494481  0.15877593    -0.01150
Br927      Br  0.57730590  0.66675842  0.23918829    -0.01220
Br928      Br  0.91230663  0.69498780  0.10920626    -0.01180
Br929      Br  0.90103485  0.72675479  0.20489389    -0.01160
C930        C  0.48265871  0.65120881  0.29284232    -0.02290
C931        C  0.97769816  0.69937084  0.29064103     0.07390
C932        C  0.95987195  0.71987882  0.32604904    -0.02400
C933        C  0.96413641  0.69843726  0.36405740    -0.02410
C934        C  0.98311762  0.65522940  0.36641507     0.07520
C935        C  0.48800512  0.62996840  0.33077530    -0.02600
Br936      Br  0.49538475  0.56498899  0.33447406    -0.01150
Br937      Br  0.46848765  0.61129843  0.24845491    -0.01220
Br938      Br  0.94254222  0.72716234  0.41282284    -0.01200
Br939      Br  0.92321140  0.77254467  0.32321633    -0.01160
C940        C  0.96928015  0.84816791  0.16601702    -0.02290
C941        C  0.00346832  0.84245645  0.13742036     0.07390
C942        C  0.54009269  0.81538935  0.14814715    -0.02400
C943        C  0.54269963  0.79543640  0.18694245    -0.02410
C944        C  0.00628219  0.79643708  0.21332882     0.07520
C945        C  0.96938577  0.82305632  0.20229384    -0.02600
Br946      Br  0.92210101  0.83277471  0.23980156    -0.01150
Br947      Br  0.92567869  0.89567303  0.16005065    -0.01220
Br948      Br  0.59828101  0.77280918  0.20579132    -0.01180
Br949      Br  0.58678284  0.80403704  0.10990706    -0.01160
C950        C  0.01647317  0.84660836  0.29380211    -0.02290
C951        C  0.02080953  0.79840718  0.29139214     0.07390
C952        C  0.53771178  0.77738222  0.32696582    -0.02400
C953        C  0.53289709  0.79854530  0.36503811    -0.02410
C954        C  0.01456131  0.84205614  0.36732627     0.07520
C955        C  0.01070596  0.86764420  0.33175505    -0.02600
Br956      Br  0.00408668  0.93269537  0.33567327    -0.01150
Br957      Br  0.03212160  0.88660239  0.24991070    -0.01220
Br958      Br  0.55304825  0.76909142  0.41401111    -0.01180
Br959      Br  0.57426145  0.72457833  0.32434016    -0.01160
C960        C  0.86877279  0.99640596  0.90447336     0.42020
N961        N  0.90799393  0.97657074  0.95598675     0.00910
C962        C  0.53598934  0.61995570  0.57333846    -0.06970
H963        H  0.56453687  0.62549309  0.91528190     0.06400
C964        C  0.61263793  0.96118005  0.92477578    -0.07320
Co965      Co  0.94193554  0.55702153  0.00154448     0.74180
N966        N  0.51905713  0.59265392  0.95578693    -0.26500
Co967      Co  0.55596278  0.55849515  0.99968153     0.74070
C968        C  0.62922717  0.00140389  0.90408076     0.42120
N969        N  0.52230731  0.90555244  0.95787391     0.00520
N970        N  0.59013415  0.52145801  0.95559096     0.00630
N971        N  0.96235447  0.61408165  0.57781017    -0.47350
H972        H  0.88092790  0.57198403  0.91731593     0.06380
N973        N  0.97578300  0.59240314  0.95744584     0.00910
N974        N  0.59032721  0.52284844  0.54475442     0.00650
C975        C  0.62883936  0.50411668  0.59680840     0.42260
N976        N  0.97902533  0.90529615  0.95635739    -0.25960
C977        C  0.88409364  0.53539765  0.57607008    -0.06880
N978        N  0.88446840  0.96035737  0.92541908    -0.47060
N979        N  0.61274900  0.53984082  0.57570803    -0.47290
C980        C  0.86968906  0.49469034  0.59708865     0.42030
N981        N  0.97781688  0.59140142  0.54615941     0.00900
N982        N  0.97770001  0.90514495  0.54422355    -0.25980
N983        N  0.90848921  0.52119191  0.95665177    -0.26470
N984        N  0.52083279  0.90720900  0.54650728     0.00540
H985        H  0.92880744  0.87047101  0.57905148     0.06430
H986        H  0.62054478  0.92819467  0.58337050     0.06460
N987        N  0.52092430  0.59349246  0.54363451    -0.26520
N988        N  0.58958962  0.97684296  0.95639800    -0.26130
N989        N  0.90823593  0.97573118  0.54515706     0.00900
C990        C  0.98996740  0.63350906  0.90597216     0.42300
C991        C  0.96669497  0.87956450  0.92483263    -0.07380
N992        N  0.59027357  0.97822007  0.54481276    -0.26130
H993        H  0.61691210  0.92587170  0.91716371     0.06450
N994        N  0.95717349  0.61602057  0.92803310    -0.47350
H995        H  0.93331582  0.87207037  0.91624054     0.06440
C996        C  0.50176194  0.86629626  0.59754459     0.42140
C997        C  0.88529442  0.53671272  0.92503852    -0.06880
Co998      Co  0.94238384  0.93980726  0.50017474     0.73820
N999        N  0.54075112  0.88156982  0.92864683    -0.47070
C1000       C  0.49727596  0.63278843  0.59682833     0.42400
N1001       N  0.88580605  0.95888241  0.57613221    -0.47060
Co1002     Co  0.55641186  0.94128559  0.50159821     0.73890
C1003       C  0.61448548  0.96332467  0.57591609    -0.07390
C1004       C  0.53121025  0.61804052  0.92400283    -0.06950
N1005       N  0.90829700  0.52035825  0.54504675    -0.26480
N1006       N  0.61360325  0.53752329  0.92496306    -0.47240
H1007       H  0.57005673  0.62861961  0.57782373     0.06410
C1008       C  0.96285076  0.87899029  0.57422206    -0.07360
Cl1009     Cl  0.49915295  0.49915184  0.50067320    -0.50370
C1010       C  0.00784499  0.86379988  0.90686851     0.42170
H1011       H  0.87796840  0.57056250  0.58333367     0.06380
N1012       N  0.53654484  0.88477738  0.57821468    -0.47080
C1013       C  0.00719163  0.77146476  0.75338532     0.00120
C1014       C  0.99167433  0.72684737  0.75306692     0.00120
C1015       C  0.77210199  0.99798892  0.75013822     0.00120
C1016       C  0.72631986  0.00022462  0.75005248     0.00120
C1017       C  0.66290455  0.97474396  0.70447725    -0.02290
C1018       C  0.69978289  0.00336336  0.71089106     0.07390
C1019       C  0.70898283  0.53652037  0.68073185    -0.02400
C1020       C  0.68680526  0.53601507  0.64312125    -0.02410
C1021       C  0.65152717  0.00632332  0.63671105     0.07520
C1022       C  0.63799321  0.97794111  0.66860520    -0.02600
Br1023     Br  0.58289469  0.94585215  0.66486291    -0.01150
Br1024     Br  0.64616053  0.92844301  0.74269299    -0.01220
Br1025     Br  0.70585440  0.57548571  0.59998196    -0.01180
Br1026     Br  0.74693537  0.58715978  0.69183980    -0.01160
C1027       C  0.64789758  0.53651443  0.83606225    -0.02290
C1028       C  0.65561053  0.00291185  0.86580433     0.07390
C1029       C  0.68690199  0.96870669  0.85752936    -0.02400
C1030       C  0.70663403  0.96546645  0.81903211    -0.02410
C1031       C  0.70065035  0.00014618  0.78969535     0.07520
C1032       C  0.66985473  0.53502477  0.79841738    -0.02600
Br1033     Br  0.65746140  0.58244532  0.75975186    -0.01150
Br1034     Br  0.60800867  0.58602059  0.84605870    -0.01220
Br1035     Br  0.73592324  0.90940594  0.80551065    -0.01180
Br1036     Br  0.70756027  0.92875545  0.89995006    -0.01160
C1037       C  0.78950666  0.96205176  0.68074548    -0.02290
C1038       C  0.79872826  0.99504737  0.71105587     0.07390
C1039       C  0.83553537  0.52375481  0.70480305    -0.02400
C1040       C  0.86032434  0.52090569  0.66885857    -0.02410
C1041       C  0.84691083  0.99256287  0.63688498     0.07520
C1042       C  0.81165573  0.96277672  0.64316402    -0.02600
Br1043     Br  0.79256712  0.92353579  0.59984097    -0.01150
Br1044     Br  0.75161110  0.91131203  0.69159848    -0.01220
Br1045     Br  0.91510364  0.55352403  0.66505361    -0.01180
Br1046     Br  0.85247509  0.56961960  0.74341327    -0.01160
C1047       C  0.79147863  0.03238078  0.81934501    -0.02290
C1048       C  0.79764279  0.99788269  0.78988705     0.07390
C1049       C  0.82843099  0.46302902  0.79859714    -0.02400
C1050       C  0.85039806  0.46149965  0.83627565    -0.02410
C1051       C  0.84244448  0.99484565  0.86615273     0.07520
C1052       C  0.81099721  0.02891333  0.85793592    -0.02600
Br1053     Br  0.78994829  0.06838842  0.90051426    -0.01150
Br1054     Br  0.76234970  0.08855654  0.80589753    -0.01220
Br1055     Br  0.89092342  0.41247489  0.84608596    -0.01180
Br1056     Br  0.84091020  0.41575154  0.75985840    -0.01160
C1057       C  0.52998469  0.67635104  0.70155513    -0.02290
C1058       C  0.99284048  0.70246521  0.71275060     0.07390
C1059       C  0.95647948  0.70359941  0.68626371    -0.02400
C1060       C  0.95911047  0.68373995  0.64743220    -0.02410
C1061       C  0.99583956  0.65687228  0.63662635     0.07520
C1062       C  0.53029122  0.65153372  0.66510495    -0.02600
Br1063     Br  0.57472715  0.60494486  0.65877591    -0.01150
Br1064     Br  0.57730591  0.66675844  0.73918828    -0.01220
Br1065     Br  0.91230662  0.69498778  0.60920627    -0.01180
Br1066     Br  0.90103485  0.72675476  0.70489392    -0.01160
C1067       C  0.48265872  0.65120880  0.79284233    -0.02290
C1068       C  0.97769816  0.69937083  0.79064104     0.07390
C1069       C  0.95987195  0.71987880  0.82604904    -0.02400
C1070       C  0.96413640  0.69843725  0.86405740    -0.02410
C1071       C  0.98311762  0.65522939  0.86641508     0.07520
C1072       C  0.48800513  0.62996839  0.83077531    -0.02600
Br1073     Br  0.49538477  0.56498898  0.83447407    -0.01150
Br1074     Br  0.46848769  0.61129841  0.74845491    -0.01220
Br1075     Br  0.94254221  0.72716232  0.91282284    -0.01200
Br1076     Br  0.92321140  0.77254466  0.82321633    -0.01160
C1077       C  0.96928014  0.84816790  0.66601703    -0.02290
C1078       C  0.00346832  0.84245645  0.63742037     0.07390
C1079       C  0.54009270  0.81538935  0.64814715    -0.02400
C1080       C  0.54269963  0.79543640  0.68694246    -0.02410
C1081       C  0.00628219  0.79643707  0.71332883     0.07520
C1082       C  0.96938577  0.82305631  0.70229384    -0.02600
Br1083     Br  0.92210101  0.83277469  0.73980157    -0.01150
Br1084     Br  0.92567868  0.89567301  0.66005065    -0.01220
Br1085     Br  0.59828101  0.77280920  0.70579133    -0.01180
Br1086     Br  0.58678284  0.80403705  0.60990707    -0.01160
C1087       C  0.01647318  0.84660836  0.79380211    -0.02290
C1088       C  0.02080953  0.79840718  0.79139215     0.07390
C1089       C  0.53771177  0.77738221  0.82696582    -0.02400
C1090       C  0.53289708  0.79854530  0.86503811    -0.02410
C1091       C  0.01456131  0.84205614  0.86732627     0.07520
C1092       C  0.01070596  0.86764420  0.83175505    -0.02600
Br1093     Br  0.00408670  0.93269538  0.83567327    -0.01150
Br1094     Br  0.03212160  0.88660238  0.74991069    -0.01220
Br1095     Br  0.55304823  0.76909142  0.91401112    -0.01180
Br1096     Br  0.57426144  0.72457832  0.82434017    -0.01160
loop_ 
_geom_bond_atom_site_label_1 
_geom_bond_atom_site_label_2 
_geom_bond_distance 
_geom_bond_site_symmetry_2 
_ccdc_geom_bond_type 
C1           N19   1.355       .  A
C1           C92   1.497       .  S
C1          C312   1.462       .  S
N2           N19   1.327       .  A
N2          N298   1.319       .  A
N2         Co176   2.095       .  S
C3           N28   1.336       .  A
C3           C41   1.461   1_455  S
C3           H48   1.081       .  S
H4           C45   1.080       .  S
C5           N29   1.339       .  A
C5            C9   1.463       .  S
C5           H34   1.080       .  S
Co6          N24   2.088       .  S
Co6          N14   2.070       .  S
Co6         N183   2.072       .  S
Co6         N159   2.098       .  S
Co6        Cl735   2.437   1_545  S
N7           C45   1.342       .  A
N7          N562   1.320   1_455  A
N7           Co8   2.090       .  S
Co8          N11   2.095       .  S
Co8         N165   2.075       .  S
Co8         N152   2.098       .  S
Co8        Cl187   2.470   1_445  S
C9          N321   1.355       .  A
C9           C69   1.498       .  S
N10          N40   1.321       .  A
N10         N565   1.320   1_455  A
N10        Co180   2.069       .  S
N11          N47   1.327       .  A
N11         N303   1.319   1_545  A
N12         C589   1.355       .  A
N12          N22   1.326       .  A
H13          C38   1.080       .  S
N14          N35   1.321       .  A
N14         N555   1.320       .  A
N15          N20   1.328       .  A
N15         N307   1.319   1_545  A
N15        Co145   2.098   1_554  S
C16          N20   1.354       .  A
C16         C318   1.458   1_545  S
C16         C336   1.487       .  S
N17          C32   1.342       .  A
N17         N558   1.320       .  A
N17        Co176   2.090       .  S
C18          N46   1.337       .  A
C18          C21   1.458   1_545  S
C18          H52   1.082       .  S
C21         N316   1.354       .  A
C21         C356   1.487       .  S
N22         N576   1.318       .  A
N22        Co143   2.098       .  S
N23          C49   1.336       .  A
N23         N573   1.319       .  A
N23         Co39   2.075       .  S
N24          C38   1.339       .  A
N24         N276   1.319   1_545  A
N25          N53   1.326       .  A
N25         N571   1.319   1_455  A
N25         Co43   2.097       .  S
H26          C49   1.081       .  S
H27          C44   1.082       .  S
N28         N570   1.318   1_455  A
N28        Co145   2.075   1_554  S
N29         N285   1.319       .  A
N29        Co180   2.088       .  S
N30          N42   1.328       .  A
N30         N320   1.319       .  A
N30         Co39   2.098       .  S
C31          N35   1.342       .  A
C31         C112   1.468       .  S
C31         C593   1.462       .  S
C32          C51   1.462       .  S
C32          H36   1.080       .  S
N33          C44   1.337       .  A
N33         N289   1.319       .  A
N33         Co43   2.073       .  S
C37          N53   1.355       .  A
C37         C597   1.461   1_455  S
C37         C667   1.492       .  S
C38         C275   1.462   1_545  S
Co39        N139   2.095   1_554  S
Co39        N154   2.090   1_554  S
Co39       Cl872   2.470       .  S
N40         C599   1.342       .  A
C41         N560   1.355       .  A
C41         C650   1.494       .  S
N42         C295   1.354       .  A
Co43        N147   2.069   1_554  S
Co43        N166   2.088   1_554  S
Co43       Cl324   2.437   1_455  S
C44         C290   1.458       .  S
C45         C579   1.462   1_455  S
N46         N304   1.319   1_545  A
N46        Co143   2.072       .  S
N47         C283   1.355       .  A
C49         C585   1.461       .  S
Cl50       Co691   2.437   1_565  S
Cl50       Co145   2.470   1_664  S
Cl50       Co861   2.470       .  S
Cl50       Co317   2.437   1_655  S
C51         N588   1.342       .  A
C51         C132   1.468       .  S
C54          C55   1.403       .  D
C54         C122   1.513       .  S
C54         C129   1.542       .  S
C55          C99   1.513       .  S
C55         C109   1.543       .  S
C56          C57   1.397       .  D
C56          C79   1.526       .  S
C56          C89   1.524       .  S
C57          C59   1.526       .  S
C57          C72   1.524       .  S
C58          C59   1.425       .  A
C58          C63   1.408       .  A
C58         Br65   1.931       .  S
C59         C334   1.425       .  A
C60          C61   1.412       .  A
C60         C333   1.425       .  A
C60         Br67   1.930       .  S
C61         C336   1.408       .  A
C61         Br66   1.931       .  S
C62         C290   1.487       .  S
C62          C63   1.408       .  A
C62         C335   1.408       .  A
C63         Br64   1.936       .  S
C68          C73   1.411       .  A
C68         C343   1.414       .  A
C68         Br75   1.927       .  S
C69          C70   1.413       .  A
C69         C342   1.414       .  A
C70          C71   1.408       .  A
C70         Br77   1.934       .  S
C71          C72   1.420       .  A
C71         Br76   1.931       .  S
C72         C347   1.420       .  A
C73         C346   1.420       .  A
C73         Br74   1.930       .  S
C78          C79   1.425       .  A
C78          C83   1.412       .  A
C78         Br85   1.930       .  S
C79         C354   1.426       .  A
C80          C81   1.409       .  A
C80         C353   1.426   1_545  A
C80         Br87   1.931       .  S
C81         C356   1.408   1_545  A
C81         Br86   1.936       .  S
C82         C295   1.487       .  S
C82          C83   1.408       .  A
C82         C355   1.408       .  A
C83         Br84   1.931       .  S
C88          C89   1.420       .  A
C88          C93   1.408       .  A
C88         Br95   1.930       .  S
C89         C364   1.420       .  A
C90          C91   1.412       .  A
C90         C363   1.420       .  A
C90         Br97   1.930       .  S
C91         C366   1.414       .  A
C91         Br96   1.927       .  S
C92          C93   1.413       .  A
C92         C365   1.414       .  A
C93         Br94   1.934       .  S
C98         C103   1.408       .  A
C98         C647   1.417   1_455  A
C98        Br105   1.922       .  S
C99         C100   1.411       .  A
C99         C646   1.417       .  A
C100        C101   1.411       .  A
C100       Br107   1.922       .  S
C101        C102   1.415       .  A
C101       Br106   1.931       .  S
C102        C589   1.494       .  S
C102        C651   1.417       .  A
C103        C650   1.417   1_455  A
C103       Br104   1.938       .  S
C108        C113   1.409       .  A
C108        C657   1.432       .  A
C108       Br115   1.930       .  S
C109        C110   1.423       .  A
C109        C656   1.432       .  A
C110        C111   1.410       .  A
C110       Br117   1.914       .  S
C111        C112   1.401       .  A
C111       Br116   1.933       .  S
C112        C661   1.400       .  A
C113        C660   1.400       .  A
C113       Br114   1.936       .  S
C118        C119   1.416       .  A
C118        C123   1.408       .  A
C118       Br125   1.939       .  S
C119        C585   1.492       .  S
C119        C668   1.415       .  A
C120        C121   1.411       .  A
C120        C667   1.415       .  A
C120       Br127   1.931       .  S
C121        C670   1.411       .  A
C121       Br126   1.921       .  S
C122        C123   1.417       .  A
C122        C669   1.411       .  A
C123       Br124   1.921       .  S
C128        C129   1.432       .  A
C128        C133   1.408       .  A
C128       Br135   1.930       .  S
C129        C678   1.423       .  A
C130        C131   1.410       .  A
C130        C677   1.423       .  A
C130       Br137   1.915       .  S
C131        C680   1.402       .  A
C131       Br136   1.933       .  S
C132        C133   1.400       .  A
C132        C679   1.402       .  A
C133       Br134   1.936       .  S
C138        N156   1.355       .  A
C138        C449   1.462       .  S
C138        C229   1.497       .  S
N139        N156   1.327       .  A
N139        N435   1.319       .  A
C140        N165   1.336       .  A
C140        C178   1.461   1_455  S
C140        H185   1.081       .  S
H141        C182   1.080       .  S
C142        N166   1.339       .  A
C142        C146   1.463       .  S
C142        H171   1.080       .  S
Co143       N161   2.088   1_554  S
Co143       N151   2.070   1_554  S
Co143      Cl598   2.437   1_545  S
N144        C182   1.342       .  A
N144        N699   1.320   1_455  A
N144       Co145   2.090       .  S
Co145       N148   2.095       .  S
C146        N458   1.355       .  A
C146        C206   1.498       .  S
N147        N702   1.320   1_455  A
N147        N177   1.321       .  A
N148        N440   1.319   1_545  A
N148        N184   1.327       .  A
N149        C726   1.355       .  A
N149        N159   1.326       .  A
H150        C175   1.080       .  S
N151        N692   1.320       .  A
N151        N172   1.321       .  A
N152        N444   1.319   1_545  A
N152        N157   1.328       .  A
C153        N157   1.354       .  A
C153        C455   1.458   1_545  S
C153        C473   1.487       .  S
N154        C169   1.342       .  A
N154        N695   1.320       .  A
C155        N183   1.337       .  A
C155        C158   1.458   1_545  S
C155        H189   1.082       .  S
C158        N453   1.354       .  A
C158        C493   1.487       .  S
N159        N713   1.318       .  A
N160        C186   1.336       .  A
N160        N710   1.319       .  A
N160       Co176   2.075       .  S
N161        C175   1.339       .  A
N161        N413   1.319   1_545  A
N162        N708   1.319   1_455  A
N162        N190   1.326       .  A
N162       Co180   2.097       .  S
H163        C186   1.081       .  S
H164        C181   1.082       .  S
N165        N707   1.318   1_455  A
N166        N422   1.319       .  A
N167        N179   1.328       .  A
N167        N457   1.319       .  A
N167       Co176   2.098       .  S
C168        N172   1.342       .  A
C168        C730   1.462       .  S
C168        C249   1.468       .  S
C169        C188   1.462       .  S
C169        H173   1.080       .  S
N170        C181   1.337       .  A
N170        N426   1.319       .  A
N170       Co180   2.073       .  S
C174        N190   1.355       .  A
C174        C734   1.461   1_455  S
C174        C804   1.492       .  S
C175        C412   1.462   1_545  S
Co176     Cl1009   2.470       .  S
N177        C736   1.342       .  A
C178        N697   1.355       .  A
C178        C787   1.494       .  S
N179        C432   1.354       .  A
Co180      Cl461   2.437   1_455  S
C181        C427   1.458       .  S
C182        C716   1.462   1_455  S
N183        N441   1.319   1_545  A
N184        C420   1.355       .  A
C186        C722   1.461       .  S
Cl187      Co554   2.437   1_565  S
Cl187      Co998   2.470       .  S
Cl187      Co454   2.437   1_655  S
C188        N725   1.342       .  A
C188        C269   1.468       .  S
C191        C192   1.403       .  D
C191        C259   1.513       .  S
C191        C266   1.542       .  S
C192        C236   1.513       .  S
C192        C246   1.543       .  S
C193        C194   1.397       .  D
C193        C216   1.526       .  S
C193        C226   1.524       .  S
C194        C196   1.526       .  S
C194        C209   1.524       .  S
C195        C196   1.425       .  A
C195        C200   1.408       .  A
C195       Br202   1.931       .  S
C196        C471   1.425       .  A
C197        C470   1.425       .  A
C197        C198   1.412       .  A
C197       Br204   1.930       .  S
C198        C473   1.408       .  A
C198       Br203   1.931       .  S
C199        C427   1.487       .  S
C199        C472   1.408       .  A
C199        C200   1.408       .  A
C200       Br201   1.936       .  S
C205        C480   1.414       .  A
C205        C210   1.411       .  A
C205       Br212   1.927       .  S
C206        C479   1.414       .  A
C206        C207   1.413       .  A
C207        C208   1.408       .  A
C207       Br214   1.934       .  S
C208        C209   1.420       .  A
C208       Br213   1.931       .  S
C209        C484   1.420       .  A
C210        C483   1.420       .  A
C210       Br211   1.930       .  S
C215        C216   1.425       .  A
C215        C220   1.412       .  A
C215       Br222   1.930       .  S
C216        C491   1.426       .  A
C217        C490   1.426   1_545  A
C217        C218   1.409       .  A
C217       Br224   1.931       .  S
C218        C493   1.408   1_545  A
C218       Br223   1.936       .  S
C219        C432   1.487       .  S
C219        C492   1.408       .  A
C219        C220   1.408       .  A
C220       Br221   1.931       .  S
C225        C226   1.420       .  A
C225        C230   1.408       .  A
C225       Br232   1.930       .  S
C226        C501   1.420       .  A
C227        C500   1.420       .  A
C227        C228   1.412       .  A
C227       Br234   1.930       .  S
C228        C503   1.414       .  A
C228       Br233   1.927       .  S
C229        C502   1.414       .  A
C229        C230   1.413       .  A
C230       Br231   1.934       .  S
C235        C784   1.417   1_455  A
C235        C240   1.408       .  A
C235       Br242   1.922       .  S
C236        C783   1.417       .  A
C236        C237   1.411       .  A
C237        C238   1.411       .  A
C237       Br244   1.922       .  S
C238        C239   1.415       .  A
C238       Br243   1.931       .  S
C239        C726   1.494       .  S
C239        C788   1.417       .  A
C240        C787   1.417   1_455  A
C240       Br241   1.938       .  S
C245        C794   1.432       .  A
C245        C250   1.409       .  A
C245       Br252   1.930       .  S
C246        C793   1.432       .  A
C246        C247   1.423       .  A
C247        C248   1.410       .  A
C247       Br254   1.914       .  S
C248        C249   1.401       .  A
C248       Br253   1.933       .  S
C249        C798   1.400       .  A
C250        C797   1.400       .  A
C250       Br251   1.936       .  S
C255        C256   1.416       .  A
C255        C260   1.408       .  A
C255       Br262   1.939       .  S
C256        C722   1.492       .  S
C256        C805   1.415       .  A
C257        C804   1.415       .  A
C257        C258   1.411       .  A
C257       Br264   1.931       .  S
C258        C807   1.411       .  A
C258       Br263   1.921       .  S
C259        C806   1.411       .  A
C259        C260   1.417       .  A
C260       Br261   1.921       .  S
C265        C266   1.432       .  A
C265        C270   1.408       .  A
C265       Br272   1.930       .  S
C266        C815   1.423       .  A
C267        C814   1.423       .  A
C267        C268   1.410       .  A
C267       Br274   1.915       .  S
C268        C817   1.402       .  A
C268       Br273   1.933       .  S
C269        C816   1.402       .  A
C269        C270   1.400       .  A
C270       Br271   1.936       .  S
C275        N293   1.355       .  A
C275        C366   1.497       .  S
N276        N293   1.327       .  A
N276       Co450   2.095       .  S
C277        N302   1.336       .  A
C277        C315   1.461   1_455  S
C277        H322   1.081       .  S
H278        C319   1.080       .  S
C279        N303   1.339       .  A
C279        C283   1.463   1_565  S
C279        H308   1.080       .  S
Co280       N298   2.088       .  S
Co280       N288   2.070       .  S
Co280       N457   2.073       .  S
Co280       N433   2.098       .  S
Co280     Cl1009   2.437       .  S
N281        C319   1.342       .  A
N281        N836   1.320   1_455  A
N281       Co282   2.090       .  S
Co282       N285   2.095       .  S
Co282       N439   2.075       .  S
Co282       N426   2.098       .  S
Co282      Cl461   2.470   1_455  S
C283        C343   1.498       .  S
N284        N839   1.320   1_455  A
N284        N314   1.321       .  A
N284       Co454   2.069       .  S
N285        N321   1.327       .  A
N286        C863   1.355       .  A
N286        N296   1.326       .  A
H287        C312   1.080       .  S
N288        N829   1.320       .  A
N288        N309   1.321       .  A
N289        N294   1.328       .  A
N289       Co419   2.098   1_554  S
C290        N294   1.354       .  A
N291        C306   1.342       .  A
N291        N832   1.320       .  A
N291       Co450   2.090       .  S
C292        N320   1.337       .  A
C292        C295   1.458       .  S
C292        H326   1.082       .  S
N296        N850   1.318       .  A
N296       Co417   2.098       .  S
N297        C323   1.336       .  A
N297        N847   1.319       .  A
N297       Co313   2.075       .  S
N298        C312   1.339       .  A
N299        N845   1.319   1_455  A
N299        N327   1.326       .  A
N299       Co317   2.097       .  S
H300        C323   1.081       .  S
H301        C318   1.082       .  S
N302        N844   1.318   1_455  A
N302       Co419   2.075   1_554  S
N303       Co454   2.088       .  S
N304        N316   1.328       .  A
N304       Co313   2.098       .  S
C305        N309   1.342       .  A
C305        C867   1.462       .  S
C305        C386   1.468       .  S
C306        C325   1.462       .  S
C306        H310   1.080       .  S
N307        C318   1.337       .  A
N307       Co317   2.073       .  S
C311        N327   1.355       .  A
C311        C871   1.461   1_455  S
C311        C941   1.492       .  S
Co313       N413   2.095   1_554  S
Co313       N428   2.090   1_554  S
Co313      Cl598   2.470       .  S
N314        C873   1.342       .  A
C315        N834   1.355       .  A
C315        C924   1.494       .  S
Co317       N421   2.069   1_554  S
Co317       N440   2.088   1_554  S
C319        C853   1.462   1_455  S
N320       Co417   2.073       .  S
C323        C859   1.461       .  S
Cl324      Co965   2.437       .  S
Cl324      Co419   2.470   1_654  S
Cl324      Co587   2.470       .  S
C325        N862   1.342       .  A
C325        C406   1.468       .  S
C328        C329   1.403       .  D
C328        C396   1.513       .  S
C328        C403   1.542       .  S
C329        C373   1.513       .  S
C329        C383   1.543       .  S
C330        C331   1.397   1_565  D
C330        C353   1.526       .  S
C330        C363   1.524       .  S
C331        C333   1.526       .  S
C331        C346   1.524       .  S
C332        C333   1.425   1_565  A
C332        C337   1.408       .  A
C332       Br339   1.931       .  S
C334        C335   1.412       .  A
C334       Br341   1.930       .  S
C335       Br340   1.931       .  S
C336        C337   1.408   1_545  A
C337       Br338   1.936       .  S
C342        C347   1.411       .  A
C342       Br349   1.927       .  S
C343        C344   1.413   1_545  A
C344        C345   1.408       .  A
C344       Br351   1.934       .  S
C345        C346   1.420   1_565  A
C345       Br350   1.931       .  S
C347       Br348   1.930       .  S
C352        C353   1.425       .  A
C352        C357   1.412       .  A
C352       Br359   1.930       .  S
C354        C355   1.409       .  A
C354       Br361   1.931       .  S
C355       Br360   1.936       .  S
C356        C357   1.408       .  A
C357       Br358   1.931       .  S
C362        C363   1.420   1_545  A
C362        C367   1.408       .  A
C362       Br369   1.930       .  S
C364        C365   1.412       .  A
C364       Br371   1.930       .  S
C365       Br370   1.927       .  S
C366        C367   1.413   1_565  A
C367       Br368   1.934       .  S
C372        C921   1.417   1_455  A
C372        C377   1.408       .  A
C372       Br379   1.922       .  S
C373        C920   1.417       .  A
C373        C374   1.411       .  A
C374        C375   1.411       .  A
C374       Br381   1.922       .  S
C375        C376   1.415       .  A
C375       Br380   1.931       .  S
C376        C863   1.494       .  S
C376        C925   1.417       .  A
C377        C924   1.417   1_455  A
C377       Br378   1.938       .  S
C382        C931   1.432       .  A
C382        C387   1.409       .  A
C382       Br389   1.930       .  S
C383        C930   1.432       .  A
C383        C384   1.423       .  A
C384        C385   1.410       .  A
C384       Br391   1.914       .  S
C385        C386   1.401       .  A
C385       Br390   1.933       .  S
C386        C935   1.400       .  A
C387        C934   1.400       .  A
C387       Br388   1.936       .  S
C392        C393   1.416       .  A
C392        C397   1.408       .  A
C392       Br399   1.939       .  S
C393        C859   1.492       .  S
C393        C942   1.415       .  A
C394        C941   1.415       .  A
C394        C395   1.411       .  A
C394       Br401   1.931       .  S
C395        C944   1.411       .  A
C395       Br400   1.921       .  S
C396        C943   1.411       .  A
C396        C397   1.417       .  A
C397       Br398   1.921       .  S
C402        C403   1.432       .  A
C402        C407   1.408       .  A
C402       Br409   1.930       .  S
C403        C952   1.423       .  A
C404        C951   1.423       .  A
C404        C405   1.410       .  A
C404       Br411   1.915       .  S
C405        C954   1.402       .  A
C405       Br410   1.933       .  S
C406        C953   1.402       .  A
C406        C407   1.400       .  A
C407       Br408   1.936       .  S
C412        N430   1.355       .  A
C412        C503   1.497       .  S
N413        N430   1.327       .  A
C414        N439   1.336       .  A
C414        C452   1.461   1_455  S
C414        H459   1.081       .  S
H415        C456   1.080       .  S
C416        N440   1.339       .  A
C416        C420   1.463   1_565  S
C416        H445   1.080       .  S
Co417       N435   2.088   1_554  S
Co417       N425   2.070   1_554  S
Co417      Cl872   2.437       .  S
N418        C456   1.342       .  A
N418        N973   1.320   1_455  A
N418       Co419   2.090       .  S
Co419       N422   2.095       .  S
C420        C480   1.498       .  S
N421        N976   1.320   1_455  A
N421        N451   1.321       .  A
N422        N458   1.327       .  A
N423       C1000   1.355       .  A
N423        N433   1.326       .  A
H424        C449   1.080       .  S
N425        N966   1.320       .  A
N425        N446   1.321       .  A
N426        N431   1.328       .  A
C427        N431   1.354       .  A
N428        C443   1.342       .  A
N428        N969   1.320       .  A
C429        N457   1.337       .  A
C429        C432   1.458       .  S
C429        H463   1.082       .  S
N433        N987   1.318       .  A
N434        C460   1.336       .  A
N434        N984   1.319       .  A
N434       Co450   2.075       .  S
N435        C449   1.339       .  A
N436        N982   1.319   1_455  A
N436        N464   1.326       .  A
N436       Co454   2.097       .  S
H437        C460   1.081       .  S
H438        C455   1.082       .  S
N439        N981   1.318   1_455  A
N441        N453   1.328       .  A
N441       Co450   2.098       .  S
C442        N446   1.342       .  A
C442       C1004   1.462       .  S
C442        C523   1.468       .  S
C443        C462   1.462       .  S
C443        H447   1.080       .  S
N444        C455   1.337       .  A
N444       Co454   2.073       .  S
C448        N464   1.355       .  A
C448       C1008   1.461   1_455  S
C448       C1078   1.492       .  S
Co450      Cl735   2.470       .  S
N451       C1010   1.342       .  A
C452        N971   1.355       .  A
C452       C1061   1.494       .  S
C456        C990   1.462   1_455  S
C460        C996   1.461       .  S
Cl461      Co828   2.437       .  S
Cl461      Co724   2.470       .  S
C462        N999   1.342       .  A
C462        C543   1.468       .  S
C465        C466   1.403       .  D
C465        C533   1.513       .  S
C465        C540   1.542       .  S
C466        C510   1.513       .  S
C466        C520   1.543       .  S
C467        C468   1.397   1_565  D
C467        C490   1.526       .  S
C467        C500   1.524       .  S
C468        C470   1.526       .  S
C468        C483   1.524       .  S
C469        C470   1.425   1_565  A
C469        C474   1.408       .  A
C469       Br476   1.931       .  S
C471        C472   1.412       .  A
C471       Br478   1.930       .  S
C472       Br477   1.931       .  S
C473        C474   1.408   1_545  A
C474       Br475   1.936       .  S
C479        C484   1.411       .  A
C479       Br486   1.927       .  S
C480        C481   1.413   1_545  A
C481        C482   1.408       .  A
C481       Br488   1.934       .  S
C482        C483   1.420   1_565  A
C482       Br487   1.931       .  S
C484       Br485   1.930       .  S
C489        C490   1.425       .  A
C489        C494   1.412       .  A
C489       Br496   1.930       .  S
C491        C492   1.409       .  A
C491       Br498   1.931       .  S
C492       Br497   1.936       .  S
C493        C494   1.408       .  A
C494       Br495   1.931       .  S
C499        C500   1.420   1_545  A
C499        C504   1.408       .  A
C499       Br506   1.930       .  S
C501        C502   1.412       .  A
C501       Br508   1.930       .  S
C502       Br507   1.927       .  S
C503        C504   1.413   1_565  A
C504       Br505   1.934       .  S
C509       C1058   1.417   1_455  A
C509        C514   1.408       .  A
C509       Br516   1.922       .  S
C510       C1057   1.417       .  A
C510        C511   1.411       .  A
C511        C512   1.411       .  A
C511       Br518   1.922       .  S
C512        C513   1.415       .  A
C512       Br517   1.931       .  S
C513       C1000   1.494       .  S
C513       C1062   1.417       .  A
C514       C1061   1.417   1_455  A
C514       Br515   1.938       .  S
C519       C1068   1.432       .  A
C519        C524   1.409       .  A
C519       Br526   1.930       .  S
C520       C1067   1.432       .  A
C520        C521   1.423       .  A
C521        C522   1.410       .  A
C521       Br528   1.914       .  S
C522        C523   1.401       .  A
C522       Br527   1.933       .  S
C523       C1072   1.400       .  A
C524       C1071   1.400       .  A
C524       Br525   1.936       .  S
C529        C530   1.416       .  A
C529        C534   1.408       .  A
C529       Br536   1.939       .  S
C530        C996   1.492       .  S
C530       C1079   1.415       .  A
C531       C1078   1.415       .  A
C531        C532   1.411       .  A
C531       Br538   1.931       .  S
C532       C1081   1.411       .  A
C532       Br537   1.921       .  S
C533       C1080   1.411       .  A
C533        C534   1.417       .  A
C534       Br535   1.921       .  S
C539        C540   1.432       .  A
C539        C544   1.408       .  A
C539       Br546   1.930       .  S
C540       C1089   1.423       .  A
C541       C1088   1.423       .  A
C541        C542   1.410       .  A
C541       Br548   1.915       .  S
C542       C1091   1.402       .  A
C542       Br547   1.933       .  S
C543       C1090   1.402       .  A
C543        C544   1.400       .  A
C544       Br545   1.936       .  S
C549        N567   1.355       .  A
C549        C860   1.462       .  S
C549        C640   1.497       .  S
N550        N567   1.327       .  A
N550        N846   1.319       .  A
N550       Co724   2.095       .  S
C551        N576   1.336       .  A
C551        C589   1.461       .  S
C551        H596   1.081       .  S
H552        C593   1.080       .  S
C553        N577   1.339       .  A
C553        C557   1.463       .  S
C553        H582   1.080       .  S
Co554       N572   2.088       .  S
Co554       N562   2.070       .  S
Co554       N731   2.072       .  S
Co554       N707   2.098       .  S
N555        C593   1.342       .  A
N555       Co556   2.090       .  S
Co556       N559   2.095       .  S
Co556       N713   2.075       .  S
Co556       N700   2.098       .  S
Co556      Cl735   2.470   1_545  S
C557        N869   1.355       .  A
C557        C617   1.498       .  S
N558        N588   1.321       .  A
N558       Co728   2.069       .  S
N559        N851   1.319   1_545  A
N559        N595   1.327       .  A
N560        N570   1.326       .  A
H561        C586   1.080       .  S
N562        N583   1.321       .  A
N563        N855   1.319   1_545  A
N563        N568   1.328       .  A
N563       Co693   2.098   1_554  S
C564        N568   1.354       .  A
C564        C866   1.458   1_545  S
C564        C884   1.487       .  S
N565        C580   1.342       .  A
N565       Co724   2.090       .  S
C566        N594   1.337       .  A
C566        C569   1.458   1_545  S
C566        H600   1.082       .  S
C569        N864   1.354       .  A
C569        C904   1.487       .  S
N570       Co691   2.098       .  S
N571        C597   1.336       .  A
N571       Co587   2.075       .  S
N572        C586   1.339       .  A
N572        N824   1.319   1_545  A
N573        N601   1.326       .  A
N573       Co591   2.097       .  S
H574        C597   1.081       .  S
H575        C592   1.082       .  S
N576       Co693   2.075   1_554  S
N577        N833   1.319       .  A
N577       Co728   2.088       .  S
N578        N590   1.328       .  A
N578        N868   1.319       .  A
N578       Co587   2.098       .  S
C579        N583   1.342       .  A
C579        C660   1.468       .  S
C580        C599   1.462   1_655  S
C580        H584   1.080       .  S
N581        C592   1.337       .  A
N581        N837   1.319       .  A
N581       Co591   2.073       .  S
C585        N601   1.355       .  A
C586        C823   1.462   1_545  S
Co587       N687   2.095   1_554  S
Co587       N702   2.090   1_554  S
N590        C843   1.354       .  A
Co591       N695   2.069   1_554  S
Co591       N714   2.088   1_554  S
Co591      Cl872   2.437       .  S
C592        C838   1.458       .  S
N594        N852   1.319   1_545  A
N594       Co691   2.072       .  S
N595        C831   1.355       .  A
Cl598      Co693   2.470   1_564  S
Cl598      Co865   2.437       .  S
C599        C680   1.468       .  S
C602        C603   1.403   1_455  D
C602        C670   1.513       .  S
C602        C677   1.542       .  S
C603        C647   1.513       .  S
C603        C657   1.543       .  S
C604        C605   1.397       .  D
C604        C627   1.526       .  S
C604        C637   1.524       .  S
C605        C607   1.526       .  S
C605        C620   1.524       .  S
C606        C607   1.425       .  A
C606        C611   1.408       .  A
C606       Br613   1.931       .  S
C607        C882   1.425       .  A
C608        C881   1.425       .  A
C608        C609   1.412       .  A
C608       Br615   1.930       .  S
C609        C884   1.408       .  A
C609       Br614   1.931       .  S
C610        C838   1.487       .  S
C610        C883   1.408       .  A
C610        C611   1.408       .  A
C611       Br612   1.936       .  S
C616        C891   1.414       .  A
C616        C621   1.411       .  A
C616       Br623   1.927       .  S
C617        C890   1.414       .  A
C617        C618   1.413       .  A
C618        C619   1.408       .  A
C618       Br625   1.934       .  S
C619        C620   1.420       .  A
C619       Br624   1.931       .  S
C620        C895   1.420       .  A
C621        C894   1.420       .  A
C621       Br622   1.930       .  S
C626        C627   1.425       .  A
C626        C631   1.412       .  A
C626       Br633   1.930       .  S
C627        C902   1.426       .  A
C628        C901   1.426   1_545  A
C628        C629   1.409       .  A
C628       Br635   1.931       .  S
C629        C904   1.408   1_545  A
C629       Br634   1.936       .  S
C630        C843   1.487       .  S
C630        C903   1.408       .  A
C630        C631   1.408       .  A
C631       Br632   1.931       .  S
C636        C637   1.420       .  A
C636        C641   1.408       .  A
C636       Br643   1.930       .  S
C637        C912   1.420       .  A
C638        C911   1.420       .  A
C638        C639   1.412       .  A
C638       Br645   1.930       .  S
C639        C914   1.414       .  A
C639       Br644   1.927       .  S
C640        C913   1.414       .  A
C640        C641   1.413       .  A
C641       Br642   1.934       .  S
C646        C651   1.408       .  A
C646       Br653   1.922       .  S
C647        C648   1.411       .  A
C648        C649   1.411       .  A
C648       Br655   1.922       .  S
C649        C650   1.415       .  A
C649       Br654   1.931       .  S
C651       Br652   1.938       .  S
C656        C661   1.409       .  A
C656       Br663   1.930       .  S
C657        C658   1.423       .  A
C658        C659   1.410       .  A
C658       Br665   1.914       .  S
C659        C660   1.401       .  A
C659       Br664   1.933       .  S
C661       Br662   1.936       .  S
C666        C667   1.416   1_655  A
C666        C671   1.408       .  A
C666       Br673   1.939       .  S
C668        C669   1.411       .  A
C668       Br675   1.931       .  S
C669       Br674   1.921       .  S
C670        C671   1.417   1_455  A
C671       Br672   1.921       .  S
C676        C677   1.432       .  A
C676        C681   1.408       .  A
C676       Br683   1.930       .  S
C678        C679   1.410       .  A
C678       Br685   1.915       .  S
C679       Br684   1.933       .  S
C680        C681   1.400       .  A
C681       Br682   1.936       .  S
C686        N704   1.355       .  A
C686        C997   1.462       .  S
C686        C777   1.497       .  S
N687        N704   1.327       .  A
N687        N983   1.319       .  A
C688        N713   1.336       .  A
C688        C726   1.461       .  S
C688        H733   1.081       .  S
H689        C730   1.080       .  S
C690        N714   1.339       .  A
C690        C694   1.463       .  S
C690        H719   1.080       .  S
Co691       N709   2.088   1_554  S
Co691       N699   2.070   1_554  S
N692        C730   1.342       .  A
N692       Co693   2.090       .  S
Co693       N696   2.095       .  S
C694       N1006   1.355       .  A
C694        C754   1.498       .  S
N695        N725   1.321       .  A
N696        N988   1.319   1_545  A
N696        N732   1.327       .  A
N697        N707   1.326       .  A
H698        C723   1.080       .  S
N699        N720   1.321       .  A
N700        N992   1.319   1_545  A
N700        N705   1.328       .  A
C701        N705   1.354       .  A
C701       C1003   1.458   1_545  S
C701       C1021   1.487       .  S
N702        C717   1.342       .  A
C703        N731   1.337       .  A
C703        C706   1.458   1_545  S
C703        H737   1.082       .  S
C706       N1001   1.354       .  A
C706       C1041   1.487       .  S
N708        C734   1.336       .  A
N708       Co724   2.075       .  S
N709        C723   1.339       .  A
N709        N961   1.319   1_545  A
N710        N738   1.326       .  A
N710       Co728   2.097       .  S
H711        C734   1.081       .  S
H712        C729   1.082       .  S
N714        N970   1.319       .  A
N715        N727   1.328       .  A
N715       N1005   1.319       .  A
N715       Co724   2.098       .  S
C716        N720   1.342       .  A
C716        C797   1.468       .  S
C717        C736   1.462   1_655  S
C717        H721   1.080       .  S
N718        C729   1.337       .  A
N718        N974   1.319       .  A
N718       Co728   2.073       .  S
C722        N738   1.355       .  A
C723        C960   1.462   1_545  S
N727        C980   1.354       .  A
Co728     Cl1009   2.437       .  S
C729        C975   1.458       .  S
N731        N989   1.319   1_545  A
N732        C968   1.355       .  A
Cl735     Co1002   2.437       .  S
C736        C817   1.468       .  S
C739        C740   1.403   1_455  D
C739        C807   1.513       .  S
C739        C814   1.542       .  S
C740        C784   1.513       .  S
C740        C794   1.543       .  S
C741        C742   1.397       .  D
C741        C764   1.526       .  S
C741        C774   1.524       .  S
C742        C744   1.526       .  S
C742        C757   1.524       .  S
C743        C744   1.425       .  A
C743        C748   1.408       .  A
C743       Br750   1.931       .  S
C744       C1019   1.425       .  A
C745       C1018   1.425       .  A
C745        C746   1.412       .  A
C745       Br752   1.930       .  S
C746       C1021   1.408       .  A
C746       Br751   1.931       .  S
C747        C975   1.487       .  S
C747       C1020   1.408       .  A
C747        C748   1.408       .  A
C748       Br749   1.936       .  S
C753       C1028   1.414       .  A
C753        C758   1.411       .  A
C753       Br760   1.927       .  S
C754       C1027   1.414       .  A
C754        C755   1.413       .  A
C755        C756   1.408       .  A
C755       Br762   1.934       .  S
C756        C757   1.420       .  A
C756       Br761   1.931       .  S
C757       C1032   1.420       .  A
C758       C1031   1.420       .  A
C758       Br759   1.930       .  S
C763        C764   1.425       .  A
C763        C768   1.412       .  A
C763       Br770   1.930       .  S
C764       C1039   1.426       .  A
C765       C1038   1.426   1_545  A
C765        C766   1.409       .  A
C765       Br772   1.931       .  S
C766       C1041   1.408   1_545  A
C766       Br771   1.936       .  S
C767        C980   1.487       .  S
C767       C1040   1.408       .  A
C767        C768   1.408       .  A
C768       Br769   1.931       .  S
C773        C774   1.420       .  A
C773        C778   1.408       .  A
C773       Br780   1.930       .  S
C774       C1049   1.420       .  A
C775       C1048   1.420       .  A
C775        C776   1.412       .  A
C775       Br782   1.930       .  S
C776       C1051   1.414       .  A
C776       Br781   1.927       .  S
C777       C1050   1.414       .  A
C777        C778   1.413       .  A
C778       Br779   1.934       .  S
C783        C788   1.408       .  A
C783       Br790   1.922       .  S
C784        C785   1.411       .  A
C785        C786   1.411       .  A
C785       Br792   1.922       .  S
C786        C787   1.415       .  A
C786       Br791   1.931       .  S
C788       Br789   1.938       .  S
C793        C798   1.409       .  A
C793       Br800   1.930       .  S
C794        C795   1.423       .  A
C795        C796   1.410       .  A
C795       Br802   1.914       .  S
C796        C797   1.401       .  A
C796       Br801   1.933       .  S
C798       Br799   1.936       .  S
C803        C804   1.416   1_655  A
C803        C808   1.408       .  A
C803       Br810   1.939       .  S
C805        C806   1.411       .  A
C805       Br812   1.931       .  S
C806       Br811   1.921       .  S
C807        C808   1.417   1_455  A
C808       Br809   1.921       .  S
C813        C814   1.432       .  A
C813        C818   1.408       .  A
C813       Br820   1.930       .  S
C815        C816   1.410       .  A
C815       Br822   1.915       .  S
C816       Br821   1.933       .  S
C817        C818   1.400       .  A
C818       Br819   1.936       .  S
C823        N841   1.355       .  A
C823        C914   1.497       .  S
N824        N841   1.327       .  A
N824       Co998   2.095       .  S
C825        N850   1.336       .  A
C825        C863   1.461       .  S
C825        H870   1.081       .  S
H826        C867   1.080       .  S
C827        N851   1.339       .  A
C827        C831   1.463   1_565  S
C827        H856   1.080       .  S
Co828       N846   2.088       .  S
Co828       N836   2.070       .  S
Co828      N1005   2.073       .  S
Co828       N981   2.098       .  S
N829        C867   1.342       .  A
N829       Co830   2.090       .  S
Co830       N833   2.095       .  S
Co830       N987   2.075       .  S
Co830       N974   2.098       .  S
Co830     Cl1009   2.470       .  S
C831        C891   1.498       .  S
N832        N862   1.321       .  A
N832      Co1002   2.069       .  S
N833        N869   1.327       .  A
N834        N844   1.326       .  A
H835        C860   1.080       .  S
N836        N857   1.321       .  A
N837        N842   1.328       .  A
N837       Co967   2.098   1_554  S
C838        N842   1.354       .  A
N839        C854   1.342       .  A
N839       Co998   2.090       .  S
C840        N868   1.337       .  A
C840        C843   1.458       .  S
C840        H874   1.082       .  S
N844       Co965   2.098       .  S
N845        C871   1.336       .  A
N845       Co861   2.075       .  S
N846        C860   1.339       .  A
N847        N875   1.326       .  A
N847       Co865   2.097       .  S
H848        C871   1.081       .  S
H849        C866   1.082       .  S
N850       Co967   2.075   1_554  S
N851      Co1002   2.088       .  S
N852        N864   1.328       .  A
N852       Co861   2.098       .  S
C853        N857   1.342       .  A
C853        C934   1.468       .  S
C854        C873   1.462   1_655  S
C854        H858   1.080       .  S
N855        C866   1.337       .  A
N855       Co865   2.073       .  S
C859        N875   1.355       .  A
Co861       N961   2.095   1_554  S
Co861       N976   2.090   1_554  S
Co865       N969   2.069   1_554  S
Co865       N988   2.088   1_554  S
N868       Co965   2.073       .  S
Cl872      Co967   2.470   1_554  S
C873        C954   1.468       .  S
C876        C877   1.403   1_455  D
C876        C944   1.513       .  S
C876        C951   1.542       .  S
C877        C921   1.513       .  S
C877        C931   1.543       .  S
C878        C879   1.397   1_565  D
C878        C901   1.526       .  S
C878        C911   1.524       .  S
C879        C881   1.526       .  S
C879        C894   1.524       .  S
C880        C881   1.425   1_565  A
C880        C885   1.408       .  A
C880       Br887   1.931       .  S
C882        C883   1.412       .  A
C882       Br889   1.930       .  S
C883       Br888   1.931       .  S
C884        C885   1.408   1_545  A
C885       Br886   1.936       .  S
C890        C895   1.411       .  A
C890       Br897   1.927       .  S
C891        C892   1.413   1_545  A
C892        C893   1.408       .  A
C892       Br899   1.934       .  S
C893        C894   1.420   1_565  A
C893       Br898   1.931       .  S
C895       Br896   1.930       .  S
C900        C901   1.425       .  A
C900        C905   1.412       .  A
C900       Br907   1.930       .  S
C902        C903   1.409       .  A
C902       Br909   1.931       .  S
C903       Br908   1.936       .  S
C904        C905   1.408       .  A
C905       Br906   1.931       .  S
C910        C911   1.420   1_545  A
C910        C915   1.408       .  A
C910       Br917   1.930       .  S
C912        C913   1.412       .  A
C912       Br919   1.930       .  S
C913       Br918   1.927       .  S
C914        C915   1.413   1_565  A
C915       Br916   1.934       .  S
C920        C925   1.408       .  A
C920       Br927   1.922       .  S
C921        C922   1.411       .  A
C922        C923   1.411       .  A
C922       Br929   1.922       .  S
C923        C924   1.415       .  A
C923       Br928   1.931       .  S
C925       Br926   1.938       .  S
C930        C935   1.409       .  A
C930       Br937   1.930       .  S
C931        C932   1.423       .  A
C932        C933   1.410       .  A
C932       Br939   1.914       .  S
C933        C934   1.401       .  A
C933       Br938   1.933       .  S
C935       Br936   1.936       .  S
C940        C941   1.416   1_655  A
C940        C945   1.408       .  A
C940       Br947   1.939       .  S
C942        C943   1.411       .  A
C942       Br949   1.931       .  S
C943       Br948   1.921       .  S
C944        C945   1.417   1_455  A
C945       Br946   1.921       .  S
C950        C951   1.432       .  A
C950        C955   1.408       .  A
C950       Br957   1.930       .  S
C952        C953   1.410       .  A
C952       Br959   1.915       .  S
C953       Br958   1.933       .  S
C954        C955   1.400       .  A
C955       Br956   1.936       .  S
C960        N978   1.355       .  A
C960       C1051   1.497       .  S
N961        N978   1.327       .  A
C962        N987   1.336       .  A
C962       C1000   1.461       .  S
C962       H1007   1.081       .  S
H963       C1004   1.080       .  S
C964        N988   1.339       .  A
C964        C968   1.463   1_565  S
C964        H993   1.080       .  S
Co965       N983   2.088   1_554  S
Co965       N973   2.070   1_554  S
N966       C1004   1.342       .  A
N966       Co967   2.090       .  S
Co967       N970   2.095       .  S
C968       C1028   1.498       .  S
N969        N999   1.321       .  A
N970       N1006   1.327       .  A
N971        N981   1.326       .  A
H972        C997   1.080       .  S
N973        N994   1.321       .  A
N974        N979   1.328       .  A
C975        N979   1.354       .  A
N976        C991   1.342       .  A
C977       N1005   1.337       .  A
C977        C980   1.458       .  S
C977       H1011   1.082       .  S
N982       C1008   1.336       .  A
N982       Co998   2.075       .  S
N983        C997   1.339       .  A
N984       N1012   1.326       .  A
N984      Co1002   2.097       .  S
H985       C1008   1.081       .  S
H986       C1003   1.082       .  S
N989       N1001   1.328       .  A
N989       Co998   2.098       .  S
C990        N994   1.342       .  A
C990       C1071   1.468       .  S
C991       C1010   1.462   1_655  S
C991        H995   1.080       .  S
N992       C1003   1.337       .  A
N992      Co1002   2.073       .  S
C996       N1012   1.355       .  A
C1010      C1091   1.468       .  S
C1013      C1014   1.403   1_455  D
C1013      C1081   1.513       .  S
C1013      C1088   1.542       .  S
C1014      C1058   1.513       .  S
C1014      C1068   1.543       .  S
C1015      C1016   1.397   1_565  D
C1015      C1038   1.526       .  S
C1015      C1048   1.524       .  S
C1016      C1018   1.526       .  S
C1016      C1031   1.524       .  S
C1017      C1018   1.425   1_565  A
C1017      C1022   1.408       .  A
C1017     Br1024   1.931       .  S
C1019      C1020   1.412       .  A
C1019     Br1026   1.930       .  S
C1020     Br1025   1.931       .  S
C1021      C1022   1.408   1_545  A
C1022     Br1023   1.936       .  S
C1027      C1032   1.411       .  A
C1027     Br1034   1.927       .  S
C1028      C1029   1.413   1_545  A
C1029      C1030   1.408       .  A
C1029     Br1036   1.934       .  S
C1030      C1031   1.420   1_565  A
C1030     Br1035   1.931       .  S
C1032     Br1033   1.930       .  S
C1037      C1038   1.425       .  A
C1037      C1042   1.412       .  A
C1037     Br1044   1.930       .  S
C1039      C1040   1.409       .  A
C1039     Br1046   1.931       .  S
C1040     Br1045   1.936       .  S
C1041      C1042   1.408       .  A
C1042     Br1043   1.931       .  S
C1047      C1048   1.420   1_545  A
C1047      C1052   1.408       .  A
C1047     Br1054   1.930       .  S
C1049      C1050   1.412       .  A
C1049     Br1056   1.930       .  S
C1050     Br1055   1.927       .  S
C1051      C1052   1.413   1_565  A
C1052     Br1053   1.934       .  S
C1057      C1062   1.408       .  A
C1057     Br1064   1.922       .  S
C1058      C1059   1.411       .  A
C1059      C1060   1.411       .  A
C1059     Br1066   1.922       .  S
C1060      C1061   1.415       .  A
C1060     Br1065   1.931       .  S
C1062     Br1063   1.938       .  S
C1067      C1072   1.409       .  A
C1067     Br1074   1.930       .  S
C1068      C1069   1.423       .  A
C1069      C1070   1.410       .  A
C1069     Br1076   1.914       .  S
C1070      C1071   1.401       .  A
C1070     Br1075   1.933       .  S
C1072     Br1073   1.936       .  S
C1077      C1078   1.416   1_655  A
C1077      C1082   1.408       .  A
C1077     Br1084   1.939       .  S
C1079      C1080   1.411       .  A
C1079     Br1086   1.931       .  S
C1080     Br1085   1.921       .  S
C1081      C1082   1.417   1_455  A
C1082     Br1083   1.921       .  S
C1087      C1088   1.432       .  A
C1087      C1092   1.408       .  A
C1087     Br1094   1.930       .  S
C1089      C1090   1.410       .  A
C1089     Br1096   1.915       .  S
C1090     Br1095   1.933       .  S
C1091      C1092   1.400       .  A
C1092     Br1093   1.936       .  S
