geometry optimzed in LAMMPS
_audit_creation_date              2020-11-30 
_audit_creation_method            'lammps2cif' 
_symmetry_space_group_name_H-M    'P1' 
_symmetry_Int_Tables_number       1 
_symmetry_cell_setting            triclinic 
loop_ 
_symmetry_equiv_pos_as_xyz 
  x,y,z 
_cell_length_a                    40.96268076486907 
_cell_length_b                    38.96009504726008 
_cell_length_c                    28.797947065182857 
_cell_angle_alpha                 90.78261889768171 
_cell_angle_beta                  89.69010540631876 
_cell_angle_gamma                 120.73343352331275 
loop_ 
_atom_site_label 
_atom_site_type_symbol 
_atom_site_fract_x 
_atom_site_fract_y 
_atom_site_fract_z 
_atom_site_charge 
Fe1        Fe  0.21809759  0.35774508  0.16086550     1.65780
Fe2        Fe  0.13431900  0.27075127  0.17874876     1.73250
Fe3        Fe  0.13446269  0.35716198  0.15829103     1.54410
O4          O  0.17279172  0.40549819  0.19939995    -0.79370
O5          O  0.09922252  0.25901204  0.12239186    -0.77680
O6          O  0.22393259  0.39986815  0.20855912    -0.81880
O7          O  0.22019533  0.39315269  0.10631792    -0.76730
O8          O  0.10346570  0.33394786  0.21766184    -0.78510
O9          O  0.16784478  0.25919795  0.13558328    -0.81250
C10         C  0.19617231  0.39850341  0.08493668     0.99510
C11         C  0.20460533  0.41605010  0.21836576     1.06950
O12         O  0.16229267  0.32859599  0.16608088    -1.10230
O13         O  0.16787787  0.27719905  0.23544515    -0.72670
O14         O  0.22487395  0.32789928  0.21557508    -0.76150
O15         O  0.16222188  0.38393285  0.09814335    -0.76840
C16         C  0.20330426  0.29968775  0.24241530     0.98420
O17         O  0.21672243  0.31743487  0.11274074    -0.74800
O18         O  0.09610868  0.27348969  0.22383470    -0.79990
C19         C  0.08523862  0.27764917  0.10297653     1.01040
C20         C  0.08925358  0.30040201  0.23697942     1.06960
O21         O  0.09299333  0.31241060  0.11593775    -0.75640
C22         C  0.19646285  0.27962135  0.11003707     1.05260
Fe23       Fe  0.28000477  0.15016781  0.16599894     1.65780
Fe24       Fe  0.36952296  0.23081166  0.16207106     1.73180
Fe25       Fe  0.35594138  0.13653583  0.16568805     1.54420
O26         O  0.32214406  0.10388775  0.22036379    -0.79370
O27         O  0.40740978  0.22817186  0.11543812    -0.77680
O28         O  0.26946295  0.10654917  0.21277733    -0.81880
O29         O  0.27202521  0.11376426  0.10989661    -0.76730
O30         O  0.39792147  0.17218172  0.21491722    -0.78510
O31         O  0.34198784  0.23563020  0.10533565    -0.81250
C32         C  0.28762273  0.09446279  0.09651985     0.99510
C33         C  0.28863447  0.09383715  0.23243098     1.06950
O34         O  0.33527282  0.17245815  0.16476523    -1.10230
O35         O  0.33679773  0.24258747  0.20843220    -0.72670
O36         O  0.28342874  0.18492280  0.22142863    -0.76150
O37         O  0.31655334  0.09720649  0.11664791    -0.76840
C38         C  0.30597959  0.22151073  0.23057493     0.98420
O39         O  0.28162322  0.19071432  0.12035272    -0.74800
O40         O  0.39967683  0.23049642  0.21827942    -0.79990
C41         C  0.41023039  0.20008215  0.09667275     1.01040
C42         C  0.40945716  0.20659428  0.23314062     1.06960
O43         O  0.39143060  0.16439661  0.11046054    -0.75640
C44         C  0.30683310  0.21925223  0.09685843     1.05260
C45         C  0.01971302  0.25448132  0.99705894     0.02870
C46         C  0.48541211  0.24997254  0.00027938     0.02870
C47         C  0.24035654  0.25745153  0.33514293     0.02870
C48         C  0.25725752  0.23527218  0.33707254     0.02870
C49         C  0.25053148  0.48214096  0.99742431     0.02870
C50         C  0.26441926  0.01780394  0.99747206     0.02870
C51         C  0.27871438  0.04033858  0.04229409    -0.14130
C52         C  0.27164535  0.06921895  0.05449081    -0.29300
H53         H  0.29493170  0.03282028  0.06543834     0.14890
H54         H  0.25340722  0.07478488  0.03245692     0.15470
C55         C  0.28026835  0.04049653  0.28407979    -0.14130
C56         C  0.27118566  0.06758162  0.27218271    -0.29300
H57         H  0.29886105  0.03509169  0.26204471     0.14890
H58         H  0.25029231  0.07061865  0.29241564     0.15470
C59         C  0.43441991  0.22042638  0.27442649    -0.14130
C60         C  0.45348955  0.20358413  0.29073168    -0.29300
H61         H  0.43724449  0.24639521  0.29284197     0.14890
H62         H  0.45231096  0.17811400  0.27323832     0.15470
C63         C  0.46444422  0.24392810  0.04493691    -0.14130
C64         C  0.43466380  0.20791154  0.05548312    -0.29300
H65         H  0.47367185  0.26887872  0.06908523     0.14890
H66         H  0.42767744  0.18266831  0.03254352     0.15470
C67         C  0.29448163  0.23255912  0.05694499    -0.14130
C68         C  0.25759792  0.21957588  0.04992678    -0.29300
H69         H  0.31552070  0.25130723  0.03139039     0.14890
H70         H  0.23626514  0.20202046  0.07574005     0.15470
C71         C  0.26488431  0.21853089  0.29487754    -0.14130
C72         C  0.29608521  0.24014058  0.26890023    -0.29300
H73         H  0.24633572  0.18676871  0.28822600     0.14890
H74         H  0.31527102  0.27150466  0.27723542     0.15470
C75         C  0.04051618  0.27237354  0.04151061    -0.14130
C76         C  0.06047589  0.25821706  0.06211971    -0.29300
H77         H  0.03942448  0.29740187  0.05682743     0.14890
H78         H  0.05973993  0.23203609  0.04723235     0.15470
C79         C  0.03658278  0.25687486  0.28871215    -0.14130
C80         C  0.06491575  0.29339769  0.27756299    -0.29300
H81         H  0.02910514  0.23172846  0.26540345     0.14890
H82         H  0.07046830  0.31907737  0.29884349     0.15470
C83         C  0.20492979  0.25766886  0.07483858    -0.14130
C84         C  0.23226065  0.27617527  0.04319211    -0.29300
H85         H  0.18612991  0.22546442  0.07238098     0.14890
H86         H  0.25005844  0.30849680  0.04372512     0.15470
C87         C  0.22501573  0.26326433  0.29074165    -0.14130
C88         C  0.22019206  0.29457510  0.28475656    -0.29300
H89         H  0.21719145  0.24144980  0.26273284     0.14890
H90         H  0.23008931  0.31810623  0.31096801     0.15470
C91         C  0.23890684  0.45864429  0.04093097    -0.14130
C92         C  0.20764445  0.42218892  0.04247318    -0.29300
H93         H  0.25584870  0.47154587  0.07218550     0.14890
H94         H  0.18858561  0.41053387  0.01280091     0.15470
C95         C  0.21896133  0.44730576  0.25495314    -0.14130
C96         C  0.24668070  0.45230786  0.28402512    -0.29300
H97         H  0.20414329  0.46340892  0.26138693     0.14890
H98         H  0.25943834  0.43390394  0.28013326     0.15470
Fe99       Fe  0.21719050  0.35397880  0.49640308     1.65780
Fe100      Fe  0.13191929  0.26650193  0.51013624     1.73250
Fe101      Fe  0.13390252  0.35441723  0.49247443     1.54410
O102        O  0.17163025  0.40139768  0.53539009    -0.79370
O103        O  0.09269336  0.25547094  0.45964556    -0.77680
O104        O  0.22290341  0.39612339  0.54457573    -0.81880
O105        O  0.22053951  0.39004757  0.44159311    -0.76730
O106        O  0.10176446  0.32931235  0.55111795    -0.78510
O107        O  0.16206510  0.25633423  0.45973895    -0.81250
C108        C  0.19718742  0.39636559  0.41996280     0.99510
C109        C  0.20336902  0.41208240  0.55452599     1.06950
O110        O  0.16100081  0.32492901  0.49975068    -1.10230
O111        O  0.16716460  0.26815832  0.56181397    -0.72670
O112        O  0.22310443  0.32330988  0.55101238    -0.76150
O113        O  0.16325632  0.38264418  0.43319083    -0.76840
C114        C  0.20171433  0.29121565  0.57244882     0.98420
O115        O  0.21631327  0.31393529  0.44791505    -0.74800
O116        O  0.09811867  0.27066182  0.56117751    -0.79990
C117        C  0.08034576  0.27510320  0.43937467     1.01040
C118        C  0.09009776  0.29707573  0.57300344     1.06960
O119        O  0.09234167  0.31162745  0.44863838    -0.75640
C120        C  0.19315162  0.27733461  0.43835078     1.05260
Fe121      Fe  0.28116696  0.13926042  0.49652615     1.65780
Fe122      Fe  0.36704046  0.22695913  0.50961369     1.73180
Fe123      Fe  0.36415965  0.13794862  0.50168973     1.54420
O124        O  0.32572387  0.09420398  0.54540770    -0.79370
O125        O  0.40688666  0.23450369  0.46065419    -0.77680
O126        O  0.27316210  0.09768420  0.54653723    -0.81880
O127        O  0.28059460  0.10296273  0.44221028    -0.76730
O128        O  0.39398400  0.16545761  0.56026513    -0.78510
O129        O  0.33831487  0.23487412  0.45598313    -0.81250
C130        C  0.30529868  0.09612824  0.42461570     0.99510
C131        C  0.29307294  0.08365974  0.56142771     1.06950
O132        O  0.33738119  0.16810804  0.50266429    -1.10230
O133        O  0.33080976  0.22717188  0.55938408    -0.72670
O134        O  0.27436054  0.17186190  0.54939296    -0.76150
O135        O  0.33722776  0.10772382  0.44283935    -0.76840
C136        C  0.29626099  0.20464077  0.57035709     0.98420
O137        O  0.28286584  0.17798100  0.44654017    -0.74800
O138        O  0.39976641  0.22561980  0.56349331    -0.79990
C139        C  0.41877669  0.21261189  0.44428515     1.01040
C140        C  0.40589798  0.19913237  0.57929381     1.06960
O141        O  0.40660810  0.17733693  0.45802521    -0.75640
C142        C  0.30693532  0.21358804  0.43504389     1.05260
C143        C  0.01572652  0.24963789  0.33317022     0.02870
C144        C  0.47516372  0.21942212  0.33477828     0.02870
C145        C  0.21636077  0.23236167  0.66794427     0.02870
C146        C  0.23426602  0.21113588  0.66668892     0.02870
C147        C  0.25481042  0.47567979  0.32770982     0.02870
C148        C  0.26547023  0.01754824  0.32752537     0.02870
C149        C  0.26832999  0.03929594  0.37170063    -0.14130
C150        C  0.29845348  0.07550359  0.37984807    -0.29300
H151        H  0.24727961  0.02467756  0.39880231     0.14890
H152        H  0.32145821  0.08851733  0.35475237     0.15470
C153        C  0.30097711  0.04778252  0.62675605    -0.14130
C154        C  0.27806780  0.05486875  0.60017078    -0.29300
H155        H  0.33129199  0.06336009  0.61992644     0.14890
H156        H  0.24838453  0.04186292  0.60963719     0.15470
C157        C  0.42678126  0.20648568  0.62249544    -0.14130
C158        C  0.46294349  0.23581068  0.62668944    -0.29300
H159        H  0.41338490  0.18445757  0.64963127     0.14890
H160        H  0.47713846  0.25525401  0.59745398     0.15470
C161        C  0.45259304  0.20468318  0.37797879    -0.14130
C162        C  0.44694722  0.22873545  0.40647404    -0.29300
H163        H  0.43622946  0.17256002  0.38267135     0.14890
H164        H  0.46047794  0.26036232  0.39893354     0.15470
C165        C  0.29943626  0.23072743  0.39398313    -0.14130
C166        C  0.26442484  0.22206698  0.38206280    -0.29300
H167        H  0.32345768  0.25089987  0.37259134     0.14890
H168        H  0.24051861  0.20429924  0.40483506     0.15470
C169        C  0.24537941  0.20026265  0.62211750    -0.14130
C170        C  0.28222728  0.21717348  0.61065223    -0.29300
H171        H  0.22339925  0.17777021  0.59971486     0.14890
H172        H  0.30343030  0.24106088  0.63248452     0.15470
C173        C  0.03840394  0.27125280  0.37510434    -0.14130
C174        C  0.05162228  0.25370039  0.40275695    -0.29300
H175        H  0.04787141  0.30269871  0.37960517     0.14890
H176        H  0.04282745  0.22260148  0.39605962     0.15470
C177        C  0.03847924  0.25535820  0.62738730    -0.14130
C178        C  0.06730146  0.29123074  0.61498204    -0.29300
H179        H  0.02972682  0.22950043  0.60482617     0.14890
H180        H  0.07360381  0.31748829  0.63562802     0.15470
C181        C  0.20142297  0.25812012  0.39942611    -0.14130
C182        C  0.23522738  0.27529754  0.37827854    -0.29300
H183        H  0.17859194  0.22950392  0.38652088     0.14890
H184        H  0.25886264  0.30340695  0.39096737     0.15470
C185        C  0.20372905  0.24266629  0.62478026    -0.14130
C186        C  0.21757048  0.28076797  0.61209895    -0.29300
H187        H  0.18200144  0.21836498  0.60386297     0.14890
H188        H  0.24118932  0.30481222  0.63110228     0.15470
C189        C  0.24373249  0.45254290  0.37174407    -0.14130
C190        C  0.20919553  0.41980425  0.37687286    -0.29300
H191        H  0.26356548  0.46336844  0.40071639     0.14890
H192        H  0.18818902  0.41122225  0.34946819     0.15470
C193        C  0.21717267  0.44331750  0.59131207    -0.14130
C194        C  0.24819542  0.45288256  0.61671120    -0.29300
H195        H  0.19985476  0.45616394  0.60049864     0.14890
H196        H  0.26437087  0.43837774  0.60951920     0.15470
Fe197      Fe  0.22486835  0.36599661  0.82996774     1.65780
Fe198      Fe  0.14436262  0.27391786  0.83839962     1.73250
Fe199      Fe  0.13791308  0.35747770  0.82601838     1.54410
O200        O  0.17376749  0.40674878  0.86733849    -0.79370
O201        O  0.10824688  0.26243365  0.78369117    -0.77680
O202        O  0.22613600  0.40450942  0.88011439    -0.81880
O203        O  0.22447010  0.40098750  0.77758740    -0.76730
O204        O  0.10913885  0.33105143  0.88551606    -0.78510
O205        O  0.18002746  0.26924154  0.79023440    -0.81250
C206        C  0.19940247  0.40350341  0.75478907     0.99510
C207        C  0.20510031  0.41894419  0.88821240     1.06950
O208        O  0.16906036  0.33236737  0.83155119    -1.10230
O209        O  0.17874597  0.27863795  0.89283855    -0.72670
O210        O  0.23295230  0.33618805  0.88247332    -0.76150
O211        O  0.16479182  0.38616200  0.76636213    -0.76840
C212        C  0.21272365  0.30401827  0.90397642     0.98420
O213        O  0.22940595  0.33070587  0.77962713    -0.74800
O214        O  0.10530396  0.27174174  0.88761919    -0.79990
C215        C  0.09147899  0.27940094  0.76776539     1.01040
C216        C  0.09757718  0.29742465  0.90381342     1.06960
O217        O  0.09700842  0.31253762  0.78359669    -0.75640
C218        C  0.21046839  0.29381734  0.76934366     1.05260
Fe219      Fe  0.28194092  0.14455960  0.83805886     1.65780
Fe220      Fe  0.36165780  0.23701806  0.83381911     1.73180
Fe221      Fe  0.37013889  0.15424980  0.83422274     1.54420
O222        O  0.34214665  0.11815184  0.88935796    -0.79370
O223        O  0.40298677  0.24525648  0.78680389    -0.77680
O224        O  0.28261379  0.10553892  0.88734013    -0.81880
O225        O  0.28101584  0.11003802  0.78326990    -0.76730
O226        O  0.40821201  0.19487550  0.88302887    -0.78510
O227        O  0.32946441  0.23462770  0.77834179    -0.81250
C228        C  0.30316000  0.09897431  0.76767950     0.99510
C229        C  0.30856333  0.10081484  0.90482062     1.06950
O230        O  0.33786053  0.17850405  0.83532600    -1.10230
O231        O  0.32375121  0.23876577  0.87907947    -0.72670
O232        O  0.27694415  0.17665613  0.89234247    -0.76150
O233        O  0.33569948  0.11044748  0.78525065    -0.76840
C234        C  0.29394557  0.21399582  0.90019284     0.98420
O235        O  0.27368847  0.17869188  0.78915435    -0.74800
O236        O  0.39527496  0.24388638  0.89014553    -0.79990
C237        C  0.41398986  0.22369134  0.76727836     1.01040
C238        C  0.41214751  0.22601962  0.90335496     1.06960
O239        O  0.40271091  0.18822419  0.77950160    -0.75640
C240        C  0.29491557  0.21119655  0.76783718     1.05260
C241        C  0.01723249  0.25065668  0.67118387     0.02870
C242        C  0.48457482  0.24075384  0.66995039     0.02870
C243        C  0.23373754  0.25377395  0.00209991     0.02870
C244        C  0.24489591  0.22670914  0.00549823     0.02870
C245        C  0.25724371  0.47644449  0.66064653     0.02870
C246        C  0.28744903  0.02396026  0.67010679     0.02870
C247        C  0.30044980  0.04662228  0.71467949    -0.14130
C248        C  0.29033479  0.07342332  0.72562624    -0.29300
H249        H  0.31761048  0.04089675  0.73838751     0.14890
H250        H  0.27080823  0.07629700  0.70280974     0.15470
C251        C  0.26953909  0.04073611  0.95377987    -0.14130
C252        C  0.30122645  0.07619836  0.94662091    -0.29300
H253        H  0.24774948  0.02820749  0.92709030     0.14890
H254        H  0.32431229  0.08688517  0.97159222     0.15470
C255        C  0.43615050  0.24197622  0.94529439    -0.14130
C256        C  0.46280284  0.23326754  0.95677249    -0.29300
H257        H  0.43197645  0.26216732  0.96758001     0.14890
H258        H  0.46943608  0.21558553  0.93333620     0.15470
C259        C  0.46380505  0.22859136  0.71492881    -0.14130
C260        C  0.43949326  0.24043101  0.72722781    -0.29300
H261        H  0.46797418  0.20888469  0.73727800     0.14890
H262        H  0.43759227  0.26243880  0.70646049     0.15470
C263        C  0.27978650  0.22307970  0.72876743    -0.14130
C264        C  0.24536427  0.19937178  0.70998472    -0.29300
H265        H  0.29844875  0.25206857  0.71346403     0.14890
H266        H  0.22630466  0.16996011  0.72392753     0.15470
C267        C  0.25130851  0.20783975  0.96439524    -0.14130
C268        C  0.27965347  0.23052818  0.93543687    -0.29300
H269        H  0.23776149  0.17552295  0.96297538     0.14890
H270        H  0.29477965  0.26283192  0.93993261     0.15470
C271        C  0.03940596  0.26828848  0.71470364    -0.14130
C272        C  0.06611328  0.26016135  0.72758820    -0.29300
H273        H  0.03326645  0.28740048  0.73627539     0.14890
H274        H  0.06991054  0.23872056  0.70728168     0.15470
C275        C  0.04218204  0.25701855  0.95480475    -0.14130
C276        C  0.07594374  0.28996010  0.94716471    -0.29300
H277        H  0.02991017  0.23369146  0.92829946     0.14890
H278        H  0.08628825  0.31489848  0.97157826     0.15470
C279        C  0.22438114  0.28001001  0.73007191    -0.14130
C280        C  0.20506861  0.24270120  0.71265211    -0.29300
H281        H  0.25026848  0.30202876  0.71290609     0.14890
H282        H  0.17916905  0.22006198  0.72915859     0.15470
C283        C  0.21997278  0.26026282  0.95767959    -0.14130
C284        C  0.22953647  0.29703924  0.94466942    -0.29300
H285        H  0.20143395  0.23458040  0.93592013     0.14890
H286        H  0.25066986  0.32293368  0.96418724     0.15470
C287        C  0.24731487  0.45355620  0.70363945    -0.14130
C288        C  0.21081586  0.42729631  0.71270523    -0.29300
H289        H  0.26957952  0.45931544  0.72831269     0.14890
H290        H  0.18876827  0.42375970  0.68886655     0.15470
C291        C  0.21656722  0.45014081  0.92463362    -0.14130
C292        C  0.24571347  0.45959640  0.95353730    -0.29300
H293        H  0.19857991  0.46272405  0.93094175     0.14890
H294        H  0.26231237  0.44516674  0.94956823     0.15470
Fe295      Fe  0.21956744  0.86132917  0.16304406     1.65780
Fe296      Fe  0.14143673  0.76740407  0.16967681     1.73250
Fe297      Fe  0.13023350  0.84887325  0.16446297     1.54410
O298        O  0.16206497  0.89227905  0.21358698    -0.79370
O299        O  0.10184943  0.75583844  0.11798087    -0.77680
O300        O  0.22036664  0.90176876  0.20933621    -0.81880
O301        O  0.21764865  0.89325341  0.10777543    -0.76730
O302        O  0.09645665  0.81398305  0.21917622    -0.78510
O303        O  0.17515263  0.76474593  0.11869904    -0.81250
C304        C  0.19315109  0.90091072  0.09227111     0.99510
C305        C  0.19645571  0.90966069  0.22647829     1.06950
O306        O  0.16372761  0.82589758  0.16549777    -1.10230
O307        O  0.17852469  0.77217952  0.22133468    -0.72670
O308        O  0.22789558  0.83445458  0.21900383    -0.76150
O309        O  0.16021508  0.88671414  0.10987631    -0.76840
C310        C  0.20993118  0.80024696  0.23712809     0.98420
O311        O  0.22669932  0.82540028  0.11636508    -0.74800
O312        O  0.10559420  0.76239884  0.22234396    -0.79990
C313        C  0.08686734  0.77434918  0.10056627     1.01040
C314        C  0.09113115  0.78212770  0.23787672     1.06960
O315        O  0.09411991  0.80842351  0.11514917    -0.75640
C316        C  0.20748690  0.78936695  0.10265555     1.05260
Fe317      Fe  0.28204431  0.64456897  0.16576813     1.65780
Fe318      Fe  0.36304390  0.73669083  0.16538243     1.73180
Fe319      Fe  0.36939243  0.65283012  0.17196769     1.54420
O320        O  0.33365666  0.60938413  0.21979872    -0.79370
O321        O  0.39816818  0.74114459  0.11184620    -0.77680
O322        O  0.27984977  0.61043253  0.22050874    -0.81880
O323        O  0.28298598  0.60498835  0.11581657    -0.76730
O324        O  0.40018113  0.68844661  0.22753614    -0.78510
O325        O  0.32654552  0.73662273  0.11611286    -0.81250
C326        C  0.30923707  0.60010018  0.09881844     0.99510
C327        C  0.30092769  0.59842143  0.23633984     1.06950
O328        O  0.33809424  0.67793552  0.16766375    -1.10230
O329        O  0.33107212  0.73749724  0.21932018    -0.72670
O330        O  0.27521048  0.68040718  0.21601058    -0.76150
O331        O  0.34228426  0.61634836  0.11605720    -0.76840
C332        C  0.29807090  0.71429715  0.23474530     0.98420
O333        O  0.27717944  0.67471652  0.11062250    -0.74800
O334        O  0.40325212  0.74628615  0.21444792    -0.79990
C335        C  0.41540145  0.72263344  0.10261349     1.01040
C336        C  0.41262344  0.72502417  0.23704875     1.06960
O337        O  0.40950149  0.69185883  0.12463508    -0.75640
C338        C  0.29593403  0.71040145  0.09689895     1.05260
C339        C  0.01444498  0.75107365  0.00267580     0.02870
C340        C  0.47788731  0.72800177  0.99988564     0.02870
C341        C  0.23157306  0.75353756  0.33989371     0.02870
C342        C  0.24942864  0.73218371  0.33973201     0.02870
C343        C  0.24790374  0.97731826  0.99691556     0.02870
C344        C  0.26785214  0.52260099  0.99833101     0.02870
C345        C  0.27019831  0.54483877  0.04218789    -0.14130
C346        C  0.30326868  0.57671372  0.05551775    -0.29300
H347        H  0.24554521  0.53357155  0.06470063     0.14890
H348        H  0.32832113  0.58519475  0.03444384     0.15470
C349        C  0.28904783  0.54008510  0.28456976    -0.14130
C350        C  0.28670010  0.57285097  0.27773737    -0.29300
H351        H  0.30118345  0.53006391  0.25779288     0.14890
H352        H  0.27120362  0.58021245  0.30280106     0.15470
C353        C  0.43849804  0.74411687  0.27660706    -0.14130
C354        C  0.45894812  0.72935518  0.29370713    -0.29300
H355        H  0.44120629  0.77118276  0.29162447     0.14890
H356        H  0.45826401  0.70380868  0.27700130     0.15470
C357        C  0.45647385  0.71607882  0.04434277    -0.14130
C358        C  0.44269239  0.73756340  0.06374044    -0.29300
H359        H  0.44953236  0.68752379  0.05876536     0.14890
H360        H  0.44945731  0.76573597  0.04825650     0.15470
C361        C  0.28206250  0.72102279  0.05560174    -0.14130
C362        C  0.29433305  0.75897710  0.04403016    -0.29300
H363        H  0.26156136  0.69684171  0.03342204     0.14890
H364        H  0.31291252  0.78348947  0.06715966     0.15470
C365        C  0.25367669  0.71410988  0.29554028    -0.14130
C366        C  0.28850295  0.72831425  0.27785138    -0.29300
H367        H  0.22876090  0.69144063  0.27698131     0.14890
H368        H  0.31227703  0.75285474  0.29629238     0.15470
C369        C  0.03665447  0.76696592  0.04650839    -0.14130
C370        C  0.06134385  0.75600008  0.06010203    -0.29300
H371        H  0.03232212  0.78757613  0.06772325     0.14890
H372        H  0.06341213  0.73327704  0.04020959     0.15470
C373        C  0.03958825  0.77227360  0.29171415    -0.14130
C374        C  0.06859646  0.76711482  0.28071782    -0.29300
H375        H  0.03085717  0.78743089  0.26778326     0.14890
H376        H  0.07485521  0.74889709  0.30303205     0.15470
C377        C  0.22276922  0.77535913  0.06572237    -0.14130
C378        C  0.25319050  0.80096321  0.04113576    -0.29300
H379        H  0.20713051  0.74389968  0.05589125     0.14890
H380        H  0.26777748  0.83283030  0.04850562     0.15470
C381        C  0.21470070  0.75768061  0.29632095    -0.14130
C382        C  0.22624238  0.79396662  0.27930962    -0.29300
H383        H  0.19403781  0.73096083  0.27758275     0.14890
H384        H  0.24870663  0.82017784  0.29710997     0.15470
C385        C  0.23911947  0.95409254  0.04039545    -0.14130
C386        C  0.20299140  0.92686520  0.05134964    -0.29300
H387        H  0.26233778  0.95912747  0.06301845     0.14890
H388        H  0.17996570  0.92388264  0.02976765     0.15470
C389        C  0.20890681  0.93932834  0.26427640    -0.14130
C390        C  0.24349202  0.95491758  0.28347638    -0.29300
H391        H  0.18848217  0.94631031  0.27913811     0.14890
H392        H  0.26393559  0.94719755  0.27063951     0.15470
Fe393      Fe  0.21574505  0.86537206  0.49712849     1.65780
Fe394      Fe  0.12766502  0.78058482  0.50582530     1.73250
Fe395      Fe  0.13595539  0.87264582  0.50521189     1.54410
O396        O  0.17266570  0.91126075  0.55388294    -0.79370
O397        O  0.09019787  0.77804702  0.45509096    -0.77680
O398        O  0.22622148  0.91035347  0.54479939    -0.81880
O399        O  0.21796831  0.89982421  0.44240737    -0.76730
O400        O  0.10058188  0.84165453  0.55952660    -0.78510
O401        O  0.15566722  0.77119757  0.45241408    -0.81250
C402        C  0.19826700  0.91505023  0.43081600     0.99510
C403        C  0.20679438  0.92351786  0.56424525     1.06950
O404        O  0.15982533  0.83951452  0.50275612    -1.10230
O405        O  0.16244609  0.77750774  0.55665443    -0.72670
O406        O  0.21864039  0.83431898  0.55216777    -0.76150
O407        O  0.16847677  0.90841699  0.45194987    -0.76840
C408        C  0.19608138  0.80143037  0.57126143     0.98420
O409        O  0.21404459  0.82407616  0.44856619    -0.74800
O410        O  0.09429500  0.78146664  0.55933208    -0.79990
C411        C  0.08274579  0.80363364  0.43914612     1.01040
C412        C  0.08711637  0.80713065  0.57617445     1.06960
O413        O  0.09680450  0.83854241  0.45576770    -0.75640
C414        C  0.18835542  0.78970978  0.43445530     1.05260
Fe415      Fe  0.28299476  0.62584554  0.49952580     1.65780
Fe416      Fe  0.35234439  0.72519402  0.50225509     1.73180
Fe417      Fe  0.37662526  0.65283214  0.49717394     1.54420
O418        O  0.35112280  0.61047803  0.54718889    -0.79370
O419        O  0.39318329  0.74117187  0.45062270    -0.77680
O420        O  0.29027891  0.59323650  0.54948721    -0.81880
O421        O  0.28926374  0.59353561  0.44597821    -0.76730
O422        O  0.40752341  0.69108908  0.54963750    -0.78510
O423        O  0.31450271  0.71842571  0.44998144    -0.81250
C424        C  0.31718302  0.59263034  0.42795015     0.99510
C425        C  0.31822984  0.59104076  0.56428181     1.06950
O426        O  0.33728853  0.66803059  0.49960393    -1.10230
O427        O  0.31330959  0.71723169  0.55341133    -0.72670
O428        O  0.26962765  0.65241560  0.55341778    -0.76150
O429        O  0.35063939  0.61283719  0.44363052    -0.76840
C430        C  0.28349022  0.68759166  0.56968443     0.98420
O431        O  0.26970389  0.65375111  0.44919935    -0.74800
O432        O  0.39143425  0.73766251  0.55563762    -0.79990
C433        C  0.41147619  0.72575867  0.43354743     1.01040
C434        C  0.40985249  0.72144075  0.56937389     1.06960
O435        O  0.40783790  0.69352107  0.44794369    -0.75640
C436        C  0.28423462  0.68882041  0.43356736     1.05260
C437        C  0.01689958  0.75415260  0.33456562     0.02870
C438        C  0.48243658  0.74614729  0.33599021     0.02870
C439        C  0.23312379  0.75788065  0.66265730     0.02870
C440        C  0.25085326  0.73633041  0.66266704     0.02870
C441        C  0.25204619  0.97789578  0.32706059     0.02870
C442        C  0.27338873  0.51626114  0.32808975     0.02870
C443        C  0.27770117  0.53809329  0.37256929    -0.14130
C444        C  0.31163067  0.56852360  0.38577163    -0.29300
H445        H  0.25308129  0.52833950  0.39485512     0.14890
H446        H  0.33646519  0.57602640  0.36470773     0.15470
C447        C  0.27869139  0.53818485  0.61843453    -0.14130
C448        C  0.31311374  0.56622060  0.60441134    -0.29300
H449        H  0.25357414  0.53081399  0.59819610     0.14890
H450        H  0.33811975  0.57165764  0.62367116     0.15470
C451        C  0.43400120  0.73711604  0.61127021    -0.14130
C452        C  0.45608055  0.72255897  0.62450230    -0.29300
H453        H  0.43229370  0.75924076  0.63286237     0.14890
H454        H  0.45879096  0.70113288  0.60278574     0.15470
C455        C  0.46207492  0.73402826  0.38081022    -0.14130
C456        C  0.43703773  0.74491079  0.39390054    -0.29300
H457        H  0.46661484  0.71410234  0.40228626     0.14890
H458        H  0.43400976  0.76655096  0.37393208     0.15470
C459        C  0.26512382  0.69402346  0.39331119    -0.14130
C460        C  0.26827635  0.72893321  0.38225333    -0.29300
H461        H  0.24692008  0.66763572  0.37233001     0.14890
H462        H  0.28429358  0.75488363  0.40468563     0.15470
C463        C  0.26550757  0.72822844  0.61861463    -0.14130
C464        C  0.26475986  0.69371738  0.61049600    -0.29300
H465        H  0.27782959  0.75157822  0.59276922     0.14890
H466        H  0.25003117  0.66923062  0.63458710     0.15470
C467        C  0.03740829  0.75848037  0.37868979    -0.14130
C468        C  0.05855125  0.79475312  0.39783541    -0.29300
H469        H  0.03466856  0.73221057  0.39512502     0.14890
H470        H  0.05892734  0.81992760  0.38137164     0.15470
C471        C  0.03584433  0.75960572  0.62726134    -0.14130
C472        C  0.06291691  0.79720140  0.61770015    -0.29300
H473        H  0.02991893  0.73570155  0.60265986     0.14890
H474        H  0.06688233  0.82147927  0.64055649     0.15470
C475        C  0.19482644  0.77027196  0.39389535    -0.14130
C476        C  0.22832950  0.77387359  0.38271209    -0.29300
H477        H  0.17003430  0.75049935  0.37296174     0.14890
H478        H  0.25280065  0.79096746  0.40513941     0.15470
C479        C  0.21772581  0.76423594  0.61853410    -0.14130
C480        C  0.20927688  0.79312578  0.61467372    -0.29300
H481        H  0.21329763  0.74503577  0.58859289     0.14890
H482        H  0.21549557  0.81424859  0.64300781     0.15470
C483        C  0.24314991  0.95459775  0.36973966    -0.14130
C484        C  0.20978550  0.94149266  0.39078539    -0.29300
H485        H  0.26285715  0.94562345  0.38130874     0.14890
H486        H  0.19033031  0.95043417  0.37796752     0.15470
C487        C  0.22335744  0.95352371  0.60168765    -0.14130
C488        C  0.25476351  0.96118707  0.62441642    -0.29300
H489        H  0.20700541  0.96657173  0.61447506     0.14890
H490        H  0.27036765  0.94665705  0.61417207     0.15470
Fe491      Fe  0.21660088  0.85740949  0.82995425     1.65780
Fe492      Fe  0.13245502  0.77110980  0.84454718     1.73250
Fe493      Fe  0.13351810  0.85750097  0.82378500     1.54410
O494        O  0.17145646  0.90527093  0.86506906    -0.79370
O495        O  0.09881863  0.75965291  0.78762005    -0.77680
O496        O  0.22015307  0.89665401  0.88153872    -0.81880
O497        O  0.22151865  0.89721882  0.77958515    -0.76730
O498        O  0.10127951  0.83394047  0.88313835    -0.78510
O499        O  0.16739066  0.76053637  0.80131383    -0.81250
C500        C  0.19865866  0.90235635  0.75538520     0.99510
C501        C  0.20123418  0.91406099  0.88797925     1.06950
O502        O  0.16075630  0.82872381  0.83266528    -1.10230
O503        O  0.16398918  0.77780597  0.90249126    -0.72670
O504        O  0.22234218  0.82333437  0.88051157    -0.76150
O505        O  0.16337329  0.88492142  0.76402509    -0.76840
C506        C  0.19956678  0.79681312  0.90831893     0.98420
O507        O  0.21525814  0.81935409  0.77776328    -0.74800
O508        O  0.09305306  0.77311261  0.88893834    -0.79990
C509        C  0.08458807  0.77810726  0.76869559     1.01040
C510        C  0.08650396  0.80020043  0.90251210     1.06960
O511        O  0.09223794  0.81286498  0.78142754    -0.75640
C512        C  0.19504133  0.78142636  0.77422881     1.05260
Fe513      Fe  0.27507535  0.64455930  0.82529518     1.65780
Fe514      Fe  0.35992691  0.73088973  0.83800846     1.73180
Fe515      Fe  0.35756394  0.64205699  0.83194138     1.54420
O516        O  0.32225298  0.60428173  0.88361302    -0.79370
O517        O  0.40400592  0.73786930  0.79719394    -0.77680
O518        O  0.26684819  0.60110029  0.87209978    -0.81880
O519        O  0.27524286  0.61187907  0.76895815    -0.76730
O520        O  0.39575314  0.67757157  0.88425653    -0.78510
O521        O  0.33577032  0.73758122  0.77862209    -0.81250
C522        C  0.29451479  0.59619925  0.75702727     0.99510
C523        C  0.28752259  0.59099995  0.89369460     1.06950
O524        O  0.33083254  0.67238847  0.83178854    -1.10230
O525        O  0.32076410  0.73359132  0.88038370    -0.72670
O526        O  0.26809198  0.67398789  0.88066957    -0.76150
O527        O  0.32379338  0.60219525  0.77925177    -0.76840
C528        C  0.28805872  0.70930546  0.89604519     0.98420
O529        O  0.27663329  0.68517844  0.77819255    -0.74800
O530        O  0.38664410  0.72868833  0.89728092    -0.79990
C531        C  0.41237714  0.71526449  0.77491939     1.01040
C532        C  0.40150043  0.70812176  0.90772349     1.06960
O533        O  0.39529051  0.67766976  0.78083797    -0.75640
C534        C  0.30255813  0.71802449  0.76156891     1.05260
C535        C  0.01300415  0.74968609  0.67067520     0.02870
C536        C  0.47592646  0.73352680  0.66979077     0.02870
C537        C  0.26327419  0.78768120  0.99811064     0.02870
C538        C  0.28258812  0.76810990  0.99950052     0.02870
C539        C  0.26469186  0.98353937  0.66901138     0.02870
C540        C  0.27410312  0.51666618  0.66185282     0.02870
C541        C  0.28726232  0.54025364  0.70637740    -0.14130
C542        C  0.28225040  0.57132743  0.71427651    -0.29300
H543        H  0.30004010  0.53144172  0.73310735     0.14890
H544        H  0.26669512  0.57788508  0.68889801     0.15470
C545        C  0.28561074  0.54601463  0.95557004    -0.14130
C546        C  0.26988342  0.56415822  0.93362421    -0.29300
H547        H  0.31154418  0.54820946  0.94258492     0.14890
H548        H  0.24301249  0.55984777  0.94635654     0.15470
C549        C  0.42541628  0.72028676  0.94992476    -0.14130
C550        C  0.45512335  0.71490961  0.95586330    -0.29300
H551        H  0.41927327  0.73634552  0.97623787     0.14890
H552        H  0.46341233  0.70207085  0.92777547     0.15470
C553        C  0.45172367  0.71417222  0.71061216    -0.14130
C554        C  0.44268466  0.73471151  0.74005656    -0.29300
H555        H  0.43685578  0.68179596  0.71209066     0.14890
H556        H  0.45610440  0.76685397  0.73611585     0.15470
C557        C  0.29440279  0.73361477  0.71954235    -0.14130
C558        C  0.25893286  0.72324659  0.70725023    -0.29300
H559        H  0.31811807  0.75394208  0.69785904     0.14890
H560        H  0.23530447  0.70530132  0.73030611     0.15470
C561        C  0.29512477  0.75723425  0.95666524    -0.14130
C562        C  0.27307663  0.72232110  0.93463043    -0.29300
H563        H  0.32423892  0.77711513  0.94575941     0.14890
H564        H  0.24447175  0.70211704  0.94708541     0.15470
C565        C  0.03350376  0.76688381  0.71483109    -0.14130
C566        C  0.05958402  0.75837771  0.72875258    -0.29300
H567        H  0.02798225  0.78722741  0.73479097     0.14890
H568        H  0.06306187  0.73622123  0.70954540     0.15470
C569        C  0.03620855  0.75664982  0.95878643    -0.14130
C570        C  0.06193248  0.79327597  0.94360548    -0.29300
H571        H  0.03106076  0.73033351  0.93916413     0.14890
H572        H  0.06513946  0.81929989  0.96219137     0.15470
C573        C  0.20210664  0.75984743  0.73624582    -0.14130
C574        C  0.23094925  0.77810015  0.70613096    -0.29300
H575        H  0.18153232  0.72829050  0.73107874     0.14890
H576        H  0.25138048  0.80978091  0.71025118     0.15470
C577        C  0.25017106  0.79576263  0.95380573    -0.14130
C578        C  0.21434327  0.78802686  0.94993615    -0.29300
H579        H  0.26933484  0.80684746  0.92430701     0.14890
H580        H  0.19452111  0.77382013  0.97832492     0.15470
C581        C  0.24974750  0.95944536  0.71208670    -0.14130
C582        C  0.21346412  0.92889718  0.71489539    -0.29300
H583        H  0.26859548  0.96687964  0.74172275     0.14890
H584        H  0.19367653  0.92345529  0.68692448     0.15470
C585        C  0.21284752  0.94490633  0.92476473    -0.14130
C586        C  0.24174946  0.95394691  0.95356360    -0.29300
H587        H  0.19530523  0.95804667  0.93087245     0.14890
H588        H  0.25783558  0.93894932  0.94953562     0.15470
Fe589      Fe  0.71724123  0.36220773  0.16009452     1.65780
Fe590      Fe  0.63246899  0.27506543  0.17899064     1.73250
Fe591      Fe  0.63425366  0.36345548  0.16599467     1.54410
O592        O  0.67204751  0.40745854  0.21128333    -0.79370
O593        O  0.59106720  0.26472285  0.13055721    -0.77680
O594        O  0.72603537  0.40670197  0.20663287    -0.81880
O595        O  0.71738735  0.39512505  0.10451528    -0.76730
O596        O  0.60127464  0.33558786  0.22332116    -0.78510
O597        O  0.65983021  0.26423396  0.12609238    -0.81250
C598        C  0.69459594  0.40517642  0.08907753     0.99510
C599        C  0.70598917  0.41995052  0.22389040     1.06950
O600        O  0.66129287  0.33355607  0.16837548    -1.10230
O601        O  0.67059587  0.27810646  0.22910671    -0.72670
O602        O  0.72502106  0.33463808  0.21550652    -0.76150
O603        O  0.66313553  0.39523896  0.10814757    -0.76840
C604        C  0.70503397  0.30349364  0.23889240     0.98420
O605        O  0.71478986  0.32032506  0.11272001    -0.74800
O606        O  0.60011686  0.27821000  0.23199880    -0.79990
C607        C  0.58018990  0.28604084  0.11064514     1.01040
C608        C  0.59031577  0.30305597  0.24411956     1.06960
O609        O  0.59364835  0.32273061  0.12053672    -0.75640
C610        C  0.69037548  0.28404718  0.10358376     1.05260
Fe611      Fe  0.78326477  0.14915712  0.16974728     1.65780
Fe612      Fe  0.87391578  0.22959480  0.15982312     1.73180
Fe613      Fe  0.85948402  0.13523558  0.16960005     1.54420
O614        O  0.82520111  0.10328221  0.22429518    -0.79370
O615        O  0.90398348  0.22281780  0.10636088    -0.77680
O616        O  0.77624050  0.11318092  0.22471419    -0.81880
O617        O  0.77128724  0.10439069  0.12136562    -0.76730
O618        O  0.90103414  0.17085298  0.21814690    -0.78510
O619        O  0.84120703  0.23500793  0.10974259    -0.81250
C620        C  0.78876338  0.08753088  0.10595634     0.99510
C621        C  0.79433848  0.09791081  0.24131776     1.06950
O622        O  0.83890558  0.17133941  0.16640719    -1.10230
O623        O  0.84793538  0.24275178  0.21329647    -0.72670
O624        O  0.78860554  0.19108169  0.21792326    -0.76150
O625        O  0.82099142  0.09567604  0.12132796    -0.76840
C626        C  0.81515899  0.22503281  0.23158969     0.98420
O627        O  0.78262261  0.18267160  0.11611534    -0.74800
O628        O  0.91194207  0.23243931  0.20815115    -0.79990
C629        C  0.90971586  0.19499487  0.09376868     1.01040
C630        C  0.91887478  0.20800861  0.22783050     1.06960
O631        O  0.89571157  0.16202288  0.11461507    -0.75640
C632        C  0.80685099  0.21482947  0.09702478     1.05260
C633        C  0.52399385  0.27117702  0.99855161     0.02870
C634        C  0.98155609  0.23883684  0.99490634     0.02870
C635        C  0.74610320  0.26570877  0.33198783     0.02870
C636        C  0.76731141  0.24801613  0.33170824     0.02870
C637        C  0.74975125  0.48051287  0.99371385     0.02870
C638        C  0.77575157  0.01985512  0.00071157     0.02870
C639        C  0.79005257  0.04333157  0.04462859    -0.14130
C640        C  0.77118639  0.05827160  0.06727303    -0.29300
H641        H  0.81832792  0.05114459  0.05582339     0.14890
H642        H  0.74334638  0.05105936  0.05487297     0.15470
C643        C  0.78331073  0.04216037  0.29006421    -0.14130
C644        C  0.77860048  0.07314920  0.28255101    -0.29300
H645        H  0.79784521  0.03405486  0.26437479     0.14890
H646        H  0.76135143  0.07930875  0.30613528     0.15470
C647        C  0.94891002  0.22470028  0.26371781    -0.14130
C648        C  0.95364125  0.20232978  0.29491879    -0.29300
H649        H  0.96578666  0.25704711  0.26716282     0.14890
H650        H  0.93466016  0.17015331  0.29463579     0.15470
C651        C  0.95967681  0.23600246  0.03734199    -0.14130
C652        C  0.93278211  0.20011176  0.05237759    -0.29300
H653        H  0.96662413  0.26297796  0.05683050     0.14890
H654        H  0.92829016  0.17336156  0.03424775     0.15470
C655        C  0.79495722  0.22870778  0.05716906    -0.14130
C656        C  0.75865000  0.21833554  0.05094838    -0.29300
H657        H  0.81627668  0.24708588  0.03169047     0.14890
H658        H  0.73744047  0.20232698  0.07750923     0.15470
C659        C  0.77306677  0.23117035  0.28810941    -0.14130
C660        C  0.80817135  0.24422181  0.27169726    -0.29300
H661        H  0.74835140  0.20761441  0.27007377     0.14890
H662        H  0.83245656  0.26897928  0.28907419     0.15470
C663        C  0.54784289  0.28937150  0.04057367    -0.14130
C664        C  0.55133665  0.26731529  0.07344771    -0.29300
H665        H  0.56655731  0.32160170  0.04106663     0.14890
H666        H  0.53507543  0.23493853  0.07046941     0.15470
C667        C  0.53571021  0.25729525  0.29169415    -0.14130
C668        C  0.56543381  0.29413253  0.28457804    -0.29300
H669        H  0.52845638  0.23398904  0.26568135     0.14890
H670        H  0.57103588  0.31843803  0.30837288     0.15470
C671        C  0.69588170  0.26373578  0.06360901    -0.14130
C672        C  0.73003330  0.27257437  0.04781632    -0.29300
H673        H  0.67057316  0.23998101  0.04661683     0.14890
H674        H  0.75578743  0.29398329  0.06608352     0.15470
C675        C  0.72591393  0.26713904  0.28945912    -0.14130
C676        C  0.72276051  0.29911258  0.28100621    -0.29300
H677        H  0.71486002  0.24278727  0.26421404     0.14890
H678        H  0.73681875  0.32501682  0.30401445     0.15470
C679        C  0.73962826  0.45915032  0.03853570    -0.14130
C680        C  0.70440507  0.42859758  0.04639364    -0.29300
H681        H  0.76130971  0.46883418  0.06528680     0.14890
H682        H  0.68191052  0.42132720  0.02145840     0.15470
C683        C  0.72191703  0.44963257  0.26213797    -0.14130
C684        C  0.75461246  0.45874422  0.28321557    -0.29300
H685        H  0.70471439  0.46111567  0.27648437     0.14890
H686        H  0.77162054  0.44657321  0.27027511     0.15470
Fe687      Fe  0.72029216  0.35866349  0.49562552     1.65780
Fe688      Fe  0.63584590  0.27046551  0.50646026     1.73250
Fe689      Fe  0.63649185  0.35739185  0.48707255     1.54410
O690        O  0.67311541  0.40505036  0.52962128    -0.79370
O691        O  0.59916268  0.25927714  0.45288070    -0.77680
O692        O  0.72302270  0.39855925  0.54484841    -0.81880
O693        O  0.72474610  0.39615017  0.44208478    -0.76730
O694        O  0.60408814  0.33266493  0.54556014    -0.78510
O695        O  0.66853601  0.26148185  0.45869258    -0.81250
C696        C  0.70177463  0.40136749  0.41802211     0.99510
C697        C  0.70328060  0.41474442  0.55206347     1.06950
O698        O  0.66418612  0.32877296  0.49642359    -1.10230
O699        O  0.66925584  0.27268747  0.56061412    -0.72670
O700        O  0.72566723  0.32708869  0.54953286    -0.76150
O701        O  0.66684423  0.38544413  0.42801733    -0.76840
C702        C  0.70383868  0.29535075  0.57126707     0.98420
O703        O  0.72134382  0.32034018  0.44619924    -0.74800
O704        O  0.59973856  0.27362817  0.55514298    -0.79990
C705        C  0.58580393  0.27801224  0.43281582     1.01040
C706        C  0.59200333  0.30024355  0.56718565     1.06960
O707        O  0.59546076  0.31371827  0.44346291    -0.75640
C708        C  0.69930859  0.28340222  0.43706632     1.05260
Fe709      Fe  0.78272621  0.13578470  0.49731729     1.65780
Fe710      Fe  0.86148454  0.22855645  0.49821557     1.73180
Fe711      Fe  0.87031516  0.14655393  0.50496784     1.54420
O712        O  0.83420434  0.10257198  0.55150240    -0.79370
O713        O  0.89425281  0.23203497  0.44251444    -0.77680
O714        O  0.78151560  0.10588540  0.55585648    -0.81880
O715        O  0.78448480  0.09378806  0.45277177    -0.76730
O716        O  0.89938395  0.18099113  0.56098849    -0.78510
O717        O  0.82228170  0.22702619  0.45035129    -0.81250
C718        C  0.81153129  0.09156206  0.43383661     0.99510
C719        C  0.80266151  0.09343372  0.57043965     1.06950
O720        O  0.83814998  0.17028825  0.50048815    -1.10230
O721        O  0.82986076  0.22839203  0.55356774    -0.72670
O722        O  0.77346493  0.17330843  0.54113014    -0.76150
O723        O  0.84529756  0.11106964  0.44837189    -0.76840
C724        C  0.79502498  0.20581731  0.56313843     0.98420
O725        O  0.77945679  0.16279097  0.43851216    -0.74800
O726        O  0.90469924  0.23946160  0.54538280    -0.79990
C727        C  0.91305262  0.21501281  0.43443700     1.01040
C728        C  0.91394356  0.21805446  0.56850118     1.06960
O729        O  0.91046308  0.18691072  0.45915744    -0.75640
C730        C  0.79491009  0.19908127  0.42737366     1.05260
C731        C  0.51285452  0.24725475  0.33502731     0.02870
C732        C  0.97834301  0.22137000  0.33627750     0.02870
C733        C  0.71906142  0.23434353  0.66310752     0.02870
C734        C  0.73308297  0.20946917  0.66049116     0.02870
C735        C  0.76602371  0.48065317  0.32822989     0.02870
C736        C  0.76775585  0.01739841  0.33208762     0.02870
C737        C  0.77127813  0.03759616  0.37759005    -0.14130
C738        C  0.80520617  0.06735498  0.39158366    -0.29300
H739        H  0.74638318  0.02768900  0.39937571     0.14890
H740        H  0.83000634  0.07473600  0.37047350     0.15470
C741        C  0.80270382  0.04464497  0.62515335    -0.14130
C742        C  0.78993922  0.06868495  0.61237651    -0.29300
H743        H  0.82183764  0.04028504  0.60295270     0.14890
H744        H  0.76877854  0.07020874  0.63384069     0.15470
C745        C  0.94232533  0.23678012  0.60618021    -0.14130
C746        C  0.95629863  0.21659843  0.62791845    -0.29300
H747        H  0.95075508  0.26688386  0.61765661     0.14890
H748        H  0.94824698  0.18656068  0.61668680     0.15470
C749        C  0.95872838  0.21164957  0.38142405    -0.14130
C750        C  0.93778421  0.22779190  0.39343795    -0.29300
H751        H  0.96029292  0.19008941  0.40337437     0.14890
H752        H  0.93718074  0.24957503  0.37077736     0.15470
C753        C  0.78034447  0.20769789  0.38501841    -0.14130
C754        C  0.78425725  0.24325133  0.37528718    -0.29300
H755        H  0.76414180  0.18273581  0.36122345     0.14890
H756        H  0.79766047  0.26775301  0.40026774     0.15470
C757        C  0.74360327  0.19889687  0.61552681    -0.14130
C758        C  0.78022480  0.21800913  0.60282923    -0.29300
H759        H  0.72199714  0.17417194  0.59501943     0.14890
H760        H  0.80083465  0.24295951  0.62410803     0.15470
C761        C  0.53376533  0.26575206  0.37898405    -0.14130
C762        C  0.55960482  0.25714045  0.39391454    -0.29300
H763        H  0.52950087  0.28777222  0.39709454     0.14890
H764        H  0.56201595  0.23370546  0.37617573     0.15470
C765        C  0.54250314  0.25869447  0.62418756    -0.14130
C766        C  0.56941345  0.29468210  0.60938087    -0.29300
H767        H  0.53459051  0.23207482  0.60341496     0.14890
H768        H  0.57473930  0.32121650  0.62873989     0.15470
C769        C  0.70823427  0.26478816  0.39813922    -0.14130
C770        C  0.74133172  0.28339383  0.37544739    -0.29300
H771        H  0.68610899  0.23542037  0.38612636     0.14890
H772        H  0.76439629  0.31228173  0.38717234     0.15470
C773        C  0.70706466  0.24622697  0.62064656    -0.14130
C774        C  0.71921652  0.28457423  0.61099437    -0.29300
H775        H  0.68743617  0.22268839  0.59712651     0.14890
H776        H  0.74127820  0.30840540  0.63199538     0.15470
C777        C  0.75193056  0.45656985  0.37156179    -0.14130
C778        C  0.71576296  0.42632839  0.37606954    -0.29300
H779        H  0.77142661  0.46423010  0.40054865     0.14890
H780        H  0.69525421  0.42047226  0.34888221     0.15470
C781        C  0.71481459  0.44507712  0.58937894    -0.14130
C782        C  0.74307554  0.45253387  0.61872062    -0.29300
H783        H  0.69782327  0.45883964  0.59545916     0.14890
H784        H  0.75813410  0.43642352  0.61481060     0.15470
Fe785      Fe  0.72433335  0.36347980  0.82998483     1.65780
Fe786      Fe  0.64642397  0.26912075  0.83610625     1.73250
Fe787      Fe  0.63466553  0.34993678  0.82825318     1.54410
O788        O  0.66566765  0.39466402  0.87596527    -0.79370
O789        O  0.60805493  0.25652685  0.78324869    -0.77680
O790        O  0.72349967  0.40257147  0.87756686    -0.81880
O791        O  0.72268789  0.39620982  0.77555170    -0.76730
O792        O  0.60090429  0.31616184  0.88261842    -0.78510
O793        O  0.68152811  0.26752969  0.78557680    -0.81250
C794        C  0.69755133  0.40181702  0.75783369     0.99510
C795        C  0.69927400  0.41139858  0.89148622     1.06950
O796        O  0.66849076  0.32755510  0.83149356    -1.10230
O797        O  0.68249202  0.27449477  0.88873476    -0.72670
O798        O  0.73292687  0.33598211  0.88522600    -0.76150
O799        O  0.66402933  0.38622664  0.77343381    -0.76840
C800        C  0.71429820  0.30207572  0.90393043     0.98420
O801        O  0.73210936  0.32882418  0.78138421    -0.74800
O802        O  0.60863356  0.26370369  0.88770251    -0.79990
C803        C  0.59320760  0.27483657  0.76538132     1.01040
C804        C  0.59421322  0.28407431  0.90179186     1.06960
O805        O  0.59972267  0.30859689  0.77988277    -0.75640
C806        C  0.71304173  0.29277729  0.76764613     1.05260
Fe807      Fe  0.77464851  0.14204793  0.83598618     1.65780
Fe808      Fe  0.85752657  0.23171832  0.83107487     1.73180
Fe809      Fe  0.86004429  0.14506808  0.83591196     1.54420
O810        O  0.82646269  0.10600068  0.88791213    -0.79370
O811        O  0.88946014  0.23263250  0.77599994    -0.77680
O812        O  0.77403785  0.10993859  0.89238850    -0.81880
O813        O  0.77032401  0.09872216  0.78929310    -0.76730
O814        O  0.89661152  0.18200024  0.88721854    -0.78510
O815        O  0.82040809  0.23232028  0.78330756    -0.81250
C816        C  0.79303010  0.08895065  0.77186887     0.99510
C817        C  0.79507558  0.09728660  0.90692727     1.06950
O818        O  0.83072585  0.17288734  0.83440541    -1.10230
O819        O  0.82782713  0.23712661  0.88489336    -0.72670
O820        O  0.77127141  0.18102561  0.88292263    -0.76150
O821        O  0.82738060  0.10485672  0.78470423    -0.76840
C822        C  0.79416823  0.21567849  0.89922305     0.98420
O823        O  0.76913313  0.17136295  0.78001477    -0.74800
O824        O  0.89826318  0.23967404  0.87922289    -0.79990
C825        C  0.90355229  0.21179364  0.76333810     1.01040
C826        C  0.90920524  0.21820091  0.89855562     1.06960
O827        O  0.89723125  0.18034537  0.78405535    -0.75640
C828        C  0.78851423  0.20704633  0.76593963     1.05260
C829        C  0.52226558  0.25464682  0.66858623     0.02870
C830        C  0.97880396  0.23184317  0.67137799     0.02870
C831        C  0.73266278  0.25208583  0.00543814     0.02870
C832        C  0.74666410  0.22738250  0.00698487     0.02870
C833        C  0.75047431  0.47636598  0.66195868     0.02870
C834        C  0.78973261  0.02292791  0.66965585     0.02870
C835        C  0.80168355  0.04784866  0.71258973    -0.14130
C836        C  0.77887294  0.05834311  0.73430845    -0.29300
H837        H  0.83127362  0.06147024  0.72277590     0.14890
H838        H  0.74975124  0.04570464  0.72245828     0.15470
C839        C  0.78850317  0.04250564  0.95660719    -0.14130
C840        C  0.78250773  0.07277935  0.94906128    -0.29300
H841        H  0.80168617  0.03361077  0.92994831     0.14890
H842        H  0.76615720  0.07892194  0.97411036     0.15470
C843        C  0.93628500  0.23612261  0.93746522    -0.14130
C844        C  0.95948343  0.22317847  0.95099078    -0.29300
H845        H  0.93671964  0.26067916  0.95643046     0.14890
H846        H  0.96130268  0.20039358  0.93096205     0.15470
C847        C  0.95735237  0.22072119  0.71571553    -0.14130
C848        C  0.92694208  0.22454130  0.72135736    -0.29300
H849        H  0.96678018  0.20958833  0.74393573     0.14890
H850        H  0.91958109  0.23902908  0.69490051     0.15470
C851        C  0.77411388  0.22048814  0.72763307    -0.14130
C852        C  0.74330119  0.19542534  0.70253243    -0.29300
H853        H  0.79031101  0.25183525  0.71831620     0.14890
H854        H  0.72807138  0.16360043  0.70928098     0.15470
C855        C  0.75267516  0.20968794  0.96444451    -0.14130
C856        C  0.78201678  0.23246039  0.93675138    -0.29300
H857        H  0.73658759  0.17744945  0.95986816     0.14890
H858        H  0.79968259  0.26421417  0.94452721     0.15470
C859        C  0.54481349  0.26921396  0.71173732    -0.14130
C860        C  0.56836145  0.25683681  0.72479920    -0.29300
H861        H  0.54125187  0.29013213  0.73342933     0.14890
H862        H  0.56993082  0.23387992  0.70476309     0.15470
C863        C  0.54446094  0.28142058  0.95345274    -0.14130
C864        C  0.57004206  0.27052999  0.94366462    -0.29300
H865        H  0.53851102  0.29817698  0.92846680     0.14890
H866        H  0.57379252  0.25152509  0.96768760     0.15470
C867        C  0.72765753  0.28060349  0.72760446    -0.14130
C868        C  0.70805532  0.24393894  0.70841016    -0.29300
H869        H  0.75391774  0.30306052  0.71154334     0.14890
H870        H  0.68201527  0.22092741  0.72430117     0.15470
C871        C  0.71817441  0.25830029  0.96132149    -0.14130
C872        C  0.72995896  0.29516597  0.94614739    -0.29300
H873        H  0.69861776  0.23230948  0.94063943     0.14890
H874        H  0.75162073  0.32092664  0.96540309     0.15470
C875        C  0.74297887  0.45390827  0.70538104    -0.14130
C876        C  0.70709544  0.42690527  0.71665076    -0.29300
H877        H  0.76655315  0.45939795  0.72761660     0.14890
H878        H  0.68389502  0.42350273  0.69504590     0.15470
C879        C  0.71009731  0.44170067  0.92826724    -0.14130
C880        C  0.74287645  0.45621174  0.95142190    -0.29300
H881        H  0.68969500  0.45024323  0.93895235     0.14890
H882        H  0.76303397  0.44686471  0.94274127     0.15470
Fe883      Fe  0.72167057  0.86189149  0.16481930     1.65780
Fe884      Fe  0.64348028  0.76789934  0.16969591     1.73250
Fe885      Fe  0.63220453  0.84917011  0.16282317     1.54410
O886        O  0.66296493  0.89214504  0.21331262    -0.79370
O887        O  0.60478932  0.75625413  0.11682151    -0.77680
O888        O  0.72154917  0.90227810  0.21055635    -0.81880
O889        O  0.72075443  0.89375634  0.10924014    -0.76730
O890        O  0.59722361  0.81381453  0.21626405    -0.78510
O891        O  0.67796913  0.76541424  0.12007466    -0.81250
C892        C  0.69670363  0.90163650  0.09281861     0.99510
C893        C  0.69715378  0.90964770  0.22726346     1.06950
O894        O  0.66576428  0.82635832  0.16549623    -1.10230
O895        O  0.67971262  0.77287701  0.22251924    -0.72670
O896        O  0.72897109  0.83524784  0.22162064    -0.76150
O897        O  0.66339989  0.88748154  0.10920238    -0.76840
C898        C  0.71062319  0.80097600  0.23939685     0.98420
O899        O  0.72972845  0.82596606  0.11879479    -0.74800
O900        O  0.60672964  0.76256621  0.22102902    -0.79990
C901        C  0.59010064  0.77462516  0.09826664     1.01040
C902        C  0.59175673  0.78208284  0.23539530     1.06960
O903        O  0.59711922  0.80881872  0.11225689    -0.75640
C904        C  0.71055738  0.78996616  0.10480380     1.05260
Fe905      Fe  0.77704493  0.63232247  0.15952931     1.65780
Fe906      Fe  0.85319507  0.72741560  0.17373767     1.73180
Fe907      Fe  0.86681838  0.64735545  0.16848535     1.54420
O908        O  0.83364420  0.60324905  0.21566201    -0.79370
O909        O  0.89601246  0.74083486  0.12460782    -0.77680
O910        O  0.77472310  0.59098282  0.20575938    -0.81880
O911        O  0.78362361  0.60262806  0.10390775    -0.76730
O912        O  0.89805489  0.68262926  0.22371775    -0.78510
O913        O  0.82163877  0.72966673  0.11980389    -0.81250
C914        C  0.80987280  0.59652889  0.09084005     0.99510
C915        C  0.79841359  0.58397869  0.22511072     1.06950
O916        O  0.83237347  0.66905052  0.16731606    -1.10230
O917        O  0.81263711  0.72025932  0.22329970    -0.72670
O918        O  0.76458313  0.65743789  0.21539205    -0.76150
O919        O  0.84100087  0.61013051  0.11236779    -0.76840
C920        C  0.78077561  0.69102995  0.23622989     0.98420
O921        O  0.77175599  0.66832702  0.11126018    -0.74800
O922        O  0.88764260  0.73337201  0.22870829    -0.79990
C923        C  0.91158151  0.72229771  0.10757592     1.01040
C924        C  0.90298368  0.71436476  0.24298417     1.06960
O925        O  0.90366565  0.68816318  0.12150770    -0.75640
C926        C  0.79127644  0.70459329  0.09926133     1.05260
C927        C  0.51655245  0.74723513  0.99998090     0.02870
C928        C  0.97579214  0.73273222  0.00296613     0.02870
C929        C  0.72990697  0.75161218  0.34112350     0.02870
C930        C  0.74999033  0.73263985  0.34003942     0.02870
C931        C  0.75550577  0.97930503  0.00098056     0.02870
C932        C  0.76651041  0.52065750  0.99172434     0.02870
C933        C  0.77050245  0.54426672  0.03411809    -0.14130
C934        C  0.80477501  0.57327322  0.04826665    -0.29300
H935        H  0.74552536  0.53598050  0.05522769     0.14890
H936        H  0.82993139  0.57882060  0.02910564     0.15470
C937        C  0.80638874  0.54536087  0.28738953    -0.14130
C938        C  0.78370430  0.55260649  0.26089608    -0.29300
H939        H  0.83696918  0.56289585  0.28280350     0.14890
H940        H  0.75344663  0.53706717  0.26821617     0.15470
C941        C  0.92691867  0.72941767  0.28454286    -0.14130
C942        C  0.95741863  0.72561893  0.28941498    -0.29300
H943        H  0.91945639  0.74393569  0.31155050     0.14890
H944        H  0.96656406  0.71405592  0.26077451     0.15470
C945        C  0.95458583  0.72064225  0.04788285    -0.14130
C946        C  0.93880808  0.74014382  0.06832681    -0.29300
H947        H  0.94979371  0.69285005  0.06235828     0.14890
H948        H  0.94371900  0.76795419  0.05372961     0.15470
C949        C  0.77887490  0.71741047  0.05820794    -0.14130
C950        C  0.79396649  0.75602360  0.04682273    -0.29300
H951        H  0.75763056  0.69433290  0.03554990     0.14890
H952        H  0.81381687  0.77970405  0.06998549     0.15470
C953        C  0.76726415  0.72953279  0.29518485    -0.14130
C954        C  0.76199486  0.69465025  0.27873182    -0.29300
H955        H  0.78395073  0.75650651  0.27520131     0.14890
H956        H  0.74290784  0.66743206  0.29717138     0.15470
C957        C  0.53847472  0.76389138  0.04412523    -0.14130
C958        C  0.56529171  0.75579616  0.05719533    -0.29300
H959        H  0.53218131  0.78270904  0.06603058     0.14890
H960        H  0.56932939  0.73459176  0.03676906     0.15470
C961        C  0.54064463  0.77392475  0.28844860    -0.14130
C962        C  0.56885826  0.76741491  0.27782088    -0.29300
H963        H  0.53206251  0.78866961  0.26370653     0.14890
H964        H  0.57521651  0.74976660  0.30091627     0.15470
C965        C  0.72599261  0.77570188  0.06840723    -0.14130
C966        C  0.75547545  0.80112255  0.04254854    -0.29300
H967        H  0.71091604  0.74398572  0.05980299     0.14890
H968        H  0.76907844  0.83314470  0.04837186     0.15470
C969        C  0.71521471  0.75776016  0.29701189    -0.14130
C970        C  0.72570299  0.79441067  0.28242518    -0.29300
H971        H  0.69702713  0.73176238  0.27550702     0.14890
H972        H  0.74618931  0.82031372  0.30254760     0.15470
C973        C  0.74400564  0.95676325  0.04496778    -0.14130
C974        C  0.70777720  0.92773179  0.05211650    -0.29300
H975        H  0.76551213  0.96371861  0.07127964     0.14890
H976        H  0.68588053  0.92297779  0.02734493     0.15470
C977        C  0.70874579  0.93847791  0.26614177    -0.14130
C978        C  0.74396860  0.95605981  0.28417869    -0.29300
H979        H  0.68730801  0.94298130  0.28277202     0.14890
H980        H  0.76574829  0.95150521  0.26878430     0.15470
Fe981      Fe  0.71488534  0.86207819  0.49829579     1.65780
Fe982      Fe  0.62482410  0.78104315  0.50544543     1.73250
Fe983      Fe  0.63774291  0.87452813  0.50746970     1.54410
O984        O  0.67997617  0.91666855  0.54929318    -0.79370
O985        O  0.59078480  0.78154639  0.45338582    -0.77680
O986        O  0.72726031  0.90426985  0.55027515    -0.81880
O987        O  0.71913047  0.90139489  0.44732952    -0.76730
O988        O  0.60808660  0.84816960  0.56683330    -0.78510
O989        O  0.65303466  0.76924008  0.45362760    -0.81250
C990        C  0.69769062  0.91347147  0.43172990     0.99510
C991        C  0.71174552  0.92361014  0.56418098     1.06950
O992        O  0.65934130  0.83928402  0.50366090    -1.10230
O993        O  0.65609787  0.77548238  0.55767323    -0.72670
O994        O  0.71609816  0.82525638  0.54889944    -0.76150
O995        O  0.66592359  0.90430049  0.44929198    -0.76840
C996        C  0.69089052  0.79411269  0.56938833     0.98420
O997        O  0.71060182  0.82288000  0.44571752    -0.74800
O998        O  0.59095151  0.78428727  0.55710579    -0.79990
C999        C  0.57950633  0.80553286  0.44409619     1.01040
C1000       C  0.58970325  0.81208024  0.57916036     1.06960
O1001       O  0.59181283  0.83861201  0.46519463    -0.75640
C1002       C  0.68497256  0.78787979  0.43358188     1.05260
Fe1003     Fe  0.78230345  0.63592076  0.49948362     1.65780
Fe1004     Fe  0.86054289  0.72791103  0.50641021     1.73180
Fe1005     Fe  0.87008277  0.64721414  0.49629721     1.54420
O1006       O  0.84405557  0.61145265  0.55094444    -0.79370
O1007       O  0.90792845  0.74064255  0.46589131    -0.77680
O1008       O  0.78306432  0.59348387  0.54352209    -0.81880
O1009       O  0.78366311  0.60708611  0.44041886    -0.76730
O1010       O  0.90888444  0.68817005  0.54419238    -0.78510
O1011       O  0.83449435  0.72848203  0.44681333    -0.81250
C1012       C  0.80486950  0.59405117  0.42738997     0.99510
C1013       C  0.80981973  0.59135282  0.56339768     1.06950
O1014       O  0.83744222  0.67009711  0.50065560    -1.10230
O1015       O  0.81733832  0.72570243  0.54797560    -0.72670
O1016       O  0.77586615  0.66142196  0.55877101    -0.76150
O1017       O  0.83548994  0.60273976  0.44829393    -0.76840
C1018       C  0.78961864  0.69770938  0.56977314     0.98420
O1019       O  0.77616893  0.67515372  0.45507359    -0.74800
O1020       O  0.88737362  0.72829420  0.56595611    -0.79990
C1021       C  0.91579111  0.71968348  0.43905547     1.01040
C1022       C  0.90773447  0.71295740  0.57252094     1.06960
O1023       O  0.89895620  0.68207879  0.44159698    -0.75640
C1024       C  0.80037147  0.70673678  0.43371915     1.05260
C1025       C  0.52031713  0.76088412  0.33358748     0.02870
C1026       C  0.97857927  0.73574951  0.33376730     0.02870
C1027       C  0.74558781  0.77369232  0.66204909     0.02870
C1028       C  0.76221598  0.75110186  0.66239512     0.02870
C1029       C  0.75238312  0.97745576  0.32910093     0.02870
C1030       C  0.79174502  0.52053781  0.32981872     0.02870
C1031       C  0.80410688  0.54278352  0.37455561    -0.14130
C1032       C  0.79322413  0.56903978  0.38509197    -0.29300
H1033       H  0.82125727  0.53725630  0.39850611     0.14890
H1034       H  0.77399958  0.57185072  0.36165097     0.15470
C1035       C  0.76876137  0.53742944  0.61792428    -0.14130
C1036       C  0.80288708  0.56628708  0.60415752    -0.29300
H1037       H  0.74366542  0.52932822  0.59733611     0.14890
H1038       H  0.82761860  0.57226192  0.62448228     0.15470
C1039       C  0.93033107  0.72441827  0.61522219    -0.14130
C1040       C  0.95432200  0.71180814  0.62521484    -0.29300
H1041       H  0.92670552  0.74357605  0.63995252     0.14890
H1042       H  0.95975928  0.69395840  0.60057552     0.15470
C1043       C  0.95569298  0.71863410  0.37606683    -0.14130
C1044       C  0.94506284  0.73959019  0.40306657    -0.29300
H1045       H  0.94385221  0.68688335  0.38133632     0.14890
H1046       H  0.95651298  0.77116035  0.39679387     0.15470
C1047       C  0.79023486  0.71898277  0.39061642    -0.14130
C1048       C  0.75709363  0.71709276  0.38361918    -0.29300
H1049       H  0.81257495  0.73335870  0.36485244     0.14890
H1050       H  0.73590165  0.70618297  0.41101647     0.15470
C1051       C  0.77668115  0.74253070  0.61857292    -0.14130
C1052       C  0.77297523  0.70668732  0.61043263    -0.29300
H1053       H  0.79069756  0.76590719  0.59303715     0.14890
H1054       H  0.75684136  0.68263831  0.63467442     0.15470
C1055       C  0.54314187  0.76608992  0.37579876    -0.14130
C1056       C  0.55182539  0.79579787  0.40634023    -0.29300
H1057       H  0.55577242  0.74760121  0.37910854     0.14890
H1058       H  0.54053998  0.81537744  0.40117784     0.15470
C1059       C  0.53735535  0.76556405  0.62927108    -0.14130
C1060       C  0.56641223  0.80248821  0.62138549    -0.29300
H1061       H  0.52948972  0.74226849  0.60308532     0.14890
H1062       H  0.57262892  0.82644218  0.64605796     0.15470
C1063       C  0.69108198  0.76836765  0.39277620    -0.14130
C1064       C  0.72339188  0.76806443  0.38528600    -0.29300
H1065       H  0.66765883  0.75288792  0.36841897     0.14890
H1066       H  0.74563193  0.78055758  0.41150544     0.15470
C1067       C  0.73695713  0.78704776  0.61808980    -0.14130
C1068       C  0.70152625  0.77928096  0.61001800    -0.29300
H1069       H  0.75929931  0.80310735  0.59280582     0.14890
H1070       H  0.67914251  0.76106169  0.63449667     0.15470
C1071       C  0.74294546  0.95283258  0.37073760    -0.14130
C1072       C  0.70943324  0.93945537  0.39129107    -0.29300
H1073       H  0.76297784  0.94451208  0.38290724     0.14890
H1074       H  0.68988065  0.94801576  0.37779240     0.15470
C1075       C  0.73020109  0.95503008  0.60009091    -0.14130
C1076       C  0.75769601  0.95783492  0.62759681    -0.29300
H1077       H  0.71818588  0.97377415  0.60749745     0.14890
H1078       H  0.76773946  0.93702596  0.62325999     0.15470
Fe1079     Fe  0.72085984  0.86003487  0.83376405     1.65780
Fe1080     Fe  0.63656356  0.77285281  0.84244658     1.73250
Fe1081     Fe  0.63791284  0.86008197  0.82775512     1.54410
O1082       O  0.67631346  0.90767483  0.86972032    -0.79370
O1083       O  0.60436050  0.76437185  0.78431825    -0.77680
O1084       O  0.72397742  0.89768356  0.88655140    -0.81880
O1085       O  0.72590136  0.90074132  0.78460021    -0.76730
O1086       O  0.60635815  0.83518801  0.88692040    -0.78510
O1087       O  0.67271477  0.76411326  0.79915881    -0.81250
C1088       C  0.70291811  0.90534624  0.75990162     0.99510
C1089       C  0.70589587  0.91589957  0.89282551     1.06950
O1090       O  0.66504117  0.83099533  0.83471048    -1.10230
O1091       O  0.66689238  0.77668930  0.90101611    -0.72670
O1092       O  0.72562449  0.82446176  0.88309591    -0.76150
O1093       O  0.66760275  0.88787554  0.76829894    -0.76840
C1094       C  0.70232763  0.79618470  0.90874385     0.98420
O1095       O  0.72094740  0.82431470  0.78051123    -0.74800
O1096       O  0.59608702  0.77320837  0.88653183    -0.79990
C1097       C  0.58904193  0.78291238  0.76835025     1.01040
C1098       C  0.59047089  0.80019490  0.90314727     1.06960
O1099       O  0.59565863  0.81639585  0.78475875    -0.75640
C1100       C  0.70142545  0.78669655  0.77435037     1.05260
Fe1101     Fe  0.77594129  0.64823324  0.82343568     1.65780
Fe1102     Fe  0.86208588  0.73208197  0.83768821     1.73180
Fe1103     Fe  0.85609612  0.64169822  0.83142928     1.54420
O1104       O  0.81985171  0.60434925  0.88169635    -0.79370
O1105       O  0.90702367  0.73747441  0.79849290    -0.77680
O1106       O  0.76517380  0.60220155  0.86835474    -0.81880
O1107       O  0.77599295  0.61711075  0.76599021    -0.76730
O1108       O  0.89389333  0.67609850  0.88522505    -0.78510
O1109       O  0.84068525  0.74029545  0.77729403    -0.81250
C1110       C  0.79361461  0.59949657  0.75479038     0.99510
C1111       C  0.78498395  0.59103215  0.89021996     1.06950
O1112       O  0.83132509  0.67383897  0.83088624    -1.10230
O1113       O  0.82247130  0.73633273  0.87841510    -0.72670
O1114       O  0.76988114  0.67662208  0.88004015    -0.76150
O1115       O  0.82162501  0.60301035  0.77799818    -0.76840
C1116       C  0.78998263  0.71201549  0.89491201     0.98420
O1117       O  0.77983661  0.69157541  0.77799995    -0.74800
O1118       O  0.88536085  0.72762412  0.89831386    -0.79990
C1119       C  0.91374886  0.71368181  0.77573963     1.01040
C1120       C  0.89881089  0.70601744  0.90958667     1.06960
O1121       O  0.89467259  0.67612791  0.78114654    -0.75640
C1122       C  0.80731939  0.72323127  0.76083363     1.05260
C1123       C  0.51437362  0.75567631  0.67246567     0.02870
C1124       C  0.97498034  0.72420247  0.66974254     0.02870
C1125       C  0.76533105  0.78708425  0.99999811     0.02870
C1126       C  0.78424248  0.76704254  0.00198300     0.02870
C1127       C  0.76839230  0.98245769  0.67070233     0.02870
C1128       C  0.76533380  0.51643672  0.66207977     0.02870
C1129       C  0.78030906  0.54070214  0.70596537    -0.14130
C1130       C  0.78053538  0.57500866  0.71199110    -0.29300
H1131       H  0.79035501  0.53000856  0.73393404     0.14890
H1132       H  0.76774674  0.58420862  0.68566495     0.15470
C1133       C  0.78158441  0.54248618  0.94752748    -0.14130
C1134       C  0.76684098  0.56307299  0.92898261    -0.29300
H1135       H  0.80577520  0.54274907  0.93149767     0.14890
H1136       H  0.74144319  0.56068115  0.94426229     0.15470
C1137       C  0.92007089  0.71651158  0.95373116    -0.14130
C1138       C  0.95325888  0.71781977  0.95882929    -0.29300
H1139       H  0.90985020  0.72769219  0.98146875     0.14890
H1140       H  0.96485014  0.71006461  0.92921198     0.15470
C1141       C  0.95136987  0.70810631  0.71206082    -0.14130
C1142       C  0.94427879  0.73100975  0.74060224    -0.29300
H1143       H  0.93472404  0.67582517  0.71499405     0.14890
H1144       H  0.95905720  0.76307326  0.73538232     0.15470
C1145       C  0.80125636  0.74077062  0.71902777    -0.14130
C1146       C  0.76723794  0.73494283  0.70674526    -0.29300
H1147       H  0.82586061  0.75961054  0.69768134     0.14890
H1148       H  0.74292178  0.71827460  0.72926785     0.15470
C1149       C  0.79797755  0.75702732  0.95952885    -0.14130
C1150       C  0.77505336  0.72482580  0.93367309    -0.29300
H1151       H  0.82816385  0.77464368  0.95208435     0.14890
H1152       H  0.74540255  0.70606307  0.94338555     0.15470
C1153       C  0.53472576  0.76980761  0.71781716    -0.14130
C1154       C  0.56437535  0.76530308  0.72724001    -0.29300
H1155       H  0.52581047  0.78447514  0.74286053     0.14890
H1156       H  0.57107349  0.74788161  0.70341973     0.15470
C1157       C  0.53845394  0.75451777  0.95600319    -0.14130
C1158       C  0.56573197  0.79157832  0.94423441    -0.29300
H1159       H  0.53195006  0.72932334  0.93328592     0.14890
H1160       H  0.57010406  0.81675260  0.96571848     0.15470
C1161       C  0.71153776  0.76813829  0.73602703    -0.14130
C1162       C  0.73883022  0.79038394  0.70529979    -0.29300
H1163       H  0.69456431  0.73598083  0.73097080     0.14890
H1164       H  0.75393899  0.82272776  0.70848241     0.15470
C1165       C  0.75274330  0.79545300  0.95542296    -0.14130
C1166       C  0.71645395  0.78612342  0.95019454    -0.29300
H1167       H  0.77282383  0.80846033  0.92702171     0.14890
H1168       H  0.69604971  0.77023247  0.97757784     0.15470
C1169       C  0.75414012  0.96039704  0.71487763    -0.14130
C1170       C  0.71757535  0.93102426  0.71888767    -0.29300
H1171       H  0.77355802  0.96833077  0.74400669     0.14890
H1172       H  0.69768546  0.92549624  0.69094004     0.15470
C1173       C  0.71884135  0.94724784  0.92935584    -0.14130
C1174       C  0.74755385  0.95492516  0.95803253    -0.29300
H1175       H  0.70286018  0.96219745  0.93511593     0.14890
H1176       H  0.76230638  0.93850505  0.95410530     0.15470
loop_ 
_geom_bond_atom_site_label_1 
_geom_bond_atom_site_label_2 
_geom_bond_distance 
_geom_bond_site_symmetry_2 
_ccdc_geom_bond_type 
Fe1          O17   2.059       .  S
Fe1           O7   2.077       .  S
Fe1          O14   2.073       .  S
Fe1           O6   2.044       .  S
Fe1          O12   1.971       .  S
Fe2           O5   2.060       .  S
Fe2           O9   2.057       .  S
Fe2          O13   2.069       .  S
Fe2          O18   2.072       .  S
Fe2          O12   1.976       .  S
Fe3          O21   2.086       .  S
Fe3           O8   2.049       .  S
Fe3          O15   2.049       .  S
Fe3           O4   2.086       .  S
Fe3          O12   1.974       .  S
O4           C11   1.273       .  A
O5           C19   1.268       .  A
O6           C11   1.268       .  A
O7           C10   1.269       .  A
O8           C20   1.263       .  A
O9           C22   1.266       .  A
C10          O15   1.263       .  A
C10          C92   1.466       .  S
C11          C95   1.476       .  S
O13          C16   1.270       .  A
O14          C16   1.269       .  A
C16          C88   1.470       .  S
O17          C22   1.270       .  A
O18          C20   1.269       .  A
C19          O21   1.274       .  A
C19          C76   1.480       .  S
C20          C80   1.467       .  S
C22          C83   1.468       .  S
Fe23         O39   2.044       .  S
Fe23         O29   2.049       .  S
Fe23         O36   2.037       .  S
Fe23         O28   2.048       .  S
Fe23         O34   1.968       .  S
Fe24         O27   2.088       .  S
Fe24         O31   2.055       .  S
Fe24         O35   2.093       .  S
Fe24         O40   2.045       .  S
Fe24         O34   1.971       .  S
Fe25         O43   2.057       .  S
Fe25         O30   2.104       .  S
Fe25         O37   2.094       .  S
Fe25         O26   2.060       .  S
Fe25         O34   1.972       .  S
O26          C33   1.268       .  A
O27          C41   1.271       .  A
O28          C33   1.262       .  A
O29          C32   1.266       .  A
O30          C42   1.278       .  A
O31          C44   1.265       .  A
C32          O37   1.276       .  A
C32          C52   1.476       .  S
C33          C56   1.464       .  S
O35          C38   1.273       .  A
O36          C38   1.265       .  A
C38          C72   1.478       .  S
O39          C44   1.265       .  A
O40          C42   1.267       .  A
C41          O43   1.265       .  A
C41          C64   1.479       .  S
C42          C59   1.477       .  S
C44          C67   1.462       .  S
C45          C75   1.494   1_556  S
C45         C275   1.495       .  S
C45         C634   1.358   1_455  D
C46          C63   1.496       .  S
C46         C256   1.492   1_554  S
C46         C633   1.360   1_554  D
C47          C87   1.498       .  S
C47         C182   1.481       .  S
C47          C48   1.357       .  D
C48          C71   1.477       .  S
C48         C166   1.485       .  S
C49          C91   1.488   1_556  S
C49         C292   1.484       .  S
C49         C344   1.358       .  D
C50          C51   1.494   1_556  S
C50         C251   1.504       .  S
C50         C343   1.362   1_545  D
C51          C52   1.340       .  D
C51          H53   1.086       .  S
C52          H54   1.087       .  S
C55         C148   1.483       .  S
C55          C56   1.335       .  D
C55          H57   1.087       .  S
C56          H58   1.087       .  S
C59          C60   1.341       .  D
C59          H61   1.088       .  S
C60         C144   1.486       .  S
C60          H62   1.086       .  S
C63          C64   1.344       .  D
C63          H65   1.086       .  S
C64          H66   1.087       .  S
C67          C68   1.341       .  D
C67          H69   1.087       .  S
C68         C244   1.466       .  S
C68          H70   1.086       .  S
C71          C72   1.345       .  D
C71          H73   1.086       .  S
C72          H74   1.087       .  S
C75          C76   1.342       .  D
C75          H77   1.086       .  S
C76          H78   1.087       .  S
C79         C143   1.483       .  S
C79          C80   1.340       .  D
C79          H81   1.087       .  S
C80          H82   1.086       .  S
C83          C84   1.336       .  D
C83          H85   1.088       .  S
C84         C243   1.480       .  S
C84          H86   1.086       .  S
C87          C88   1.345       .  D
C87          H89   1.087       .  S
C88          H90   1.086       .  S
C91          C92   1.342       .  D
C91          H93   1.087       .  S
C92          H94   1.086       .  S
C95          C96   1.345       .  D
C95          H97   1.087       .  S
C96         C147   1.479       .  S
C96          H98   1.086       .  S
Fe99        O115   2.066       .  S
Fe99        O105   2.085       .  S
Fe99        O112   2.076       .  S
Fe99        O104   2.055       .  S
Fe99        O110   1.981       .  S
Fe100       O103   2.045       .  S
Fe100       O107   2.062       .  S
Fe100       O111   2.056       .  S
Fe100       O116   2.075       .  S
Fe100       O110   1.983       .  S
Fe101       O119   2.082       .  S
Fe101       O106   2.061       .  S
Fe101       O113   2.061       .  S
Fe101       O102   2.082       .  S
Fe101       O110   1.977       .  S
O102        C109   1.271       .  A
O103        C117   1.262       .  A
O104        C109   1.269       .  A
O105        C108   1.271       .  A
O106        C118   1.268       .  A
O107        C120   1.269       .  A
C108        O113   1.266       .  A
C108        C190   1.477       .  S
C109        C193   1.480       .  S
O111        C114   1.265       .  A
O112        C114   1.268       .  A
C114        C186   1.477       .  S
O115        C120   1.272       .  A
O116        C118   1.272       .  A
C117        O119   1.270       .  A
C117        C174   1.476       .  S
C118        C178   1.471       .  S
C120        C181   1.471       .  S
Fe121       O137   2.075       .  S
Fe121       O127   2.086       .  S
Fe121       O134   2.077       .  S
Fe121       O126   2.079       .  S
Fe121       O132   1.988       .  S
Fe122       O125   2.058       .  S
Fe122       O129   2.066       .  S
Fe122       O133   2.061       .  S
Fe122       O138   2.074       .  S
Fe122       O132   1.979       .  S
Fe123       O141   2.064       .  S
Fe123       O128   2.030       .  S
Fe123       O135   2.028       .  S
Fe123       O124   2.065       .  S
Fe123       O132   1.975       .  S
O124        C131   1.268       .  A
O125        C139   1.264       .  A
O126        C131   1.270       .  A
O127        C130   1.272       .  A
O128        C140   1.260       .  A
O129        C142   1.268       .  A
C130        O135   1.260       .  A
C130        C150   1.460       .  S
C131        C154   1.484       .  S
O133        C136   1.267       .  A
O134        C136   1.270       .  A
C136        C170   1.476       .  S
O137        C142   1.272       .  A
O138        C140   1.270       .  A
C139        O141   1.267       .  A
C139        C162   1.475       .  S
C140        C157   1.454       .  S
C142        C165   1.474       .  S
C143        C173   1.488       .  S
C143        C732   1.358   1_455  D
C144        C161   1.482       .  S
C144        C731   1.360       .  D
C145        C280   1.484       .  S
C145        C185   1.486       .  S
C145        C146   1.357       .  D
C146        C264   1.485       .  S
C146        C169   1.487       .  S
C147        C189   1.494       .  S
C147        C442   1.360       .  D
C148        C149   1.490       .  S
C148        C441   1.349   1_545  D
C149        C150   1.335       .  D
C149        H151   1.086       .  S
C150        H152   1.087       .  S
C153        C246   1.492       .  S
C153        C154   1.350       .  D
C153        H155   1.086       .  S
C154        H156   1.086       .  S
C157        C158   1.335       .  D
C157        H159   1.087       .  S
C158        C242   1.485       .  S
C158        H160   1.088       .  S
C161        C162   1.343       .  D
C161        H163   1.086       .  S
C162        H164   1.087       .  S
C165        C166   1.340       .  D
C165        H167   1.087       .  S
C166        H168   1.087       .  S
C169        C170   1.344       .  D
C169        H171   1.086       .  S
C170        H172   1.086       .  S
C173        C174   1.339       .  D
C173        H175   1.086       .  S
C174        H176   1.088       .  S
C177        C241   1.488       .  S
C177        C178   1.341       .  D
C177        H179   1.087       .  S
C178        H180   1.087       .  S
C181        C182   1.338       .  D
C181        H183   1.087       .  S
C182        H184   1.086       .  S
C185        C186   1.346       .  D
C185        H187   1.086       .  S
C186        H188   1.086       .  S
C189        C190   1.345       .  D
C189        H191   1.087       .  S
C190        H192   1.087       .  S
C193        C194   1.344       .  D
C193        H195   1.087       .  S
C194        C245   1.485       .  S
C194        H196   1.086       .  S
Fe197       O213   2.057       .  S
Fe197       O203   2.053       .  S
Fe197       O210   2.047       .  S
Fe197       O202   2.050       .  S
Fe197       O208   1.971       .  S
Fe198       O201   2.049       .  S
Fe198       O205   2.082       .  S
Fe198       O209   2.056       .  S
Fe198       O214   2.101       .  S
Fe198       O208   1.976       .  S
Fe199       O217   2.081       .  S
Fe199       O204   2.042       .  S
Fe199       O211   2.046       .  S
Fe199       O200   2.082       .  S
Fe199       O208   1.973       .  S
O200        C207   1.270       .  A
O201        C215   1.263       .  A
O202        C207   1.266       .  A
O203        C206   1.268       .  A
O204        C216   1.265       .  A
O205        C218   1.273       .  A
C206        O211   1.265       .  A
C206        C288   1.459       .  S
C207        C291   1.478       .  S
O209        C212   1.268       .  A
O210        C212   1.263       .  A
C212        C284   1.460       .  S
O213        C218   1.267       .  A
O214        C216   1.276       .  A
C215        O217   1.270       .  A
C215        C272   1.474       .  S
C216        C276   1.471       .  S
C218        C279   1.477       .  S
Fe219       O235   2.093       .  S
Fe219       O225   2.047       .  S
Fe219       O232   2.063       .  S
Fe219       O224   2.104       .  S
Fe219       O230   1.977       .  S
Fe220       O223   2.058       .  S
Fe220       O227   2.048       .  S
Fe220       O231   2.049       .  S
Fe220       O236   2.058       .  S
Fe220       O230   1.970       .  S
Fe221       O239   2.060       .  S
Fe221       O226   2.086       .  S
Fe221       O233   2.094       .  S
Fe221       O222   2.051       .  S
Fe221       O230   1.979       .  S
O222        C229   1.264       .  A
O223        C237   1.264       .  A
O224        C229   1.275       .  A
O225        C228   1.265       .  A
O226        C238   1.274       .  A
O227        C240   1.267       .  A
C228        O233   1.275       .  A
C228        C248   1.474       .  S
C229        C252   1.481       .  S
O231        C234   1.263       .  A
O232        C234   1.269       .  A
C234        C268   1.466       .  S
O235        C240   1.275       .  A
O236        C238   1.268       .  A
C237        O239   1.267       .  A
C237        C260   1.469       .  S
C238        C255   1.476       .  S
C240        C263   1.476       .  S
C241        C271   1.490       .  S
C241        C830   1.355   1_455  D
C242        C259   1.490       .  S
C242        C829   1.351       .  D
C243        C283   1.477   1_554  S
C243        C244   1.351       .  D
C244        C267   1.477   1_554  S
C245        C287   1.465       .  S
C245        C540   1.351       .  D
C246        C247   1.485       .  S
C246        C539   1.360   1_545  D
C247        C248   1.339       .  D
C247        H249   1.086       .  S
C248        H250   1.088       .  S
C251        C252   1.345       .  D
C251        H253   1.085       .  S
C252        H254   1.087       .  S
C255        C256   1.342       .  D
C255        H257   1.087       .  S
C256        H258   1.087       .  S
C259        C260   1.338       .  D
C259        H261   1.087       .  S
C260        H262   1.087       .  S
C263        C264   1.341       .  D
C263        H265   1.087       .  S
C264        H266   1.086       .  S
C267        C268   1.336       .  D
C267        H269   1.086       .  S
C268        H270   1.088       .  S
C271        C272   1.340       .  D
C271        H273   1.087       .  S
C272        H274   1.087       .  S
C275        C276   1.341       .  D
C275        H277   1.086       .  S
C276        H278   1.087       .  S
C279        C280   1.341       .  D
C279        H281   1.087       .  S
C280        H282   1.086       .  S
C283        C284   1.336       .  D
C283        H285   1.087       .  S
C284        H286   1.086       .  S
C287        C288   1.338       .  D
C287        H289   1.087       .  S
C288        H290   1.088       .  S
C291        C292   1.344       .  D
C291        H293   1.087       .  S
C292        H294   1.086       .  S
Fe295       O311   2.053       .  S
Fe295       O301   2.060       .  S
Fe295       O308   2.056       .  S
Fe295       O300   2.037       .  S
Fe295       O306   1.979       .  S
Fe296       O299   2.076       .  S
Fe296       O303   2.048       .  S
Fe296       O307   2.070       .  S
Fe296       O312   2.046       .  S
Fe296       O306   1.980       .  S
Fe297       O315   2.066       .  S
Fe297       O302   2.087       .  S
Fe297       O309   2.084       .  S
Fe297       O298   2.064       .  S
Fe297       O306   1.985       .  S
O298        C305   1.267       .  A
O299        C313   1.270       .  A
O300        C305   1.263       .  A
O301        C304   1.269       .  A
O302        C314   1.272       .  A
O303        C316   1.263       .  A
C304        O309   1.273       .  A
C304        C386   1.478       .  S
C305        C389   1.466       .  S
O307        C310   1.270       .  A
O308        C310   1.266       .  A
C310        C382   1.472       .  S
O311        C316   1.267       .  A
O312        C314   1.263       .  A
C313        O315   1.269       .  A
C313        C370   1.479       .  S
C314        C374   1.474       .  S
C316        C377   1.465       .  S
Fe317       O333   2.058       .  S
Fe317       O323   2.109       .  S
Fe317       O330   2.112       .  S
Fe317       O322   2.048       .  S
Fe317       O328   1.978       .  S
Fe318       O321   2.051       .  S
Fe318       O325   2.066       .  S
Fe318       O329   2.037       .  S
Fe318       O334   2.057       .  S
Fe318       O328   1.975       .  S
Fe319       O337   2.085       .  S
Fe319       O324   2.061       .  S
Fe319       O331   2.047       .  S
Fe319       O320   2.101       .  S
Fe319       O328   1.975       .  S
O320        C327   1.273       .  A
O321        C335   1.266       .  A
O322        C327   1.263       .  A
O323        C326   1.278       .  A
O324        C336   1.270       .  A
O325        C338   1.267       .  A
C326        O331   1.266       .  A
C326        C346   1.480       .  S
C327        C350   1.478       .  S
O329        C332   1.264       .  A
O330        C332   1.278       .  A
C332        C366   1.479       .  S
O333        C338   1.265       .  A
O334        C336   1.265       .  A
C335        O337   1.273       .  A
C335        C358   1.477       .  S
C336        C353   1.469       .  S
C338        C361   1.473       .  S
C339        C369   1.490       .  S
C339        C569   1.496   1_554  S
C339        C928   1.364   1_455  D
C340        C550   1.499       .  S
C340        C357   1.487   1_556  S
C340        C927   1.363       .  D
C341        C476   1.498       .  S
C341        C381   1.486       .  S
C341        C342   1.360       .  D
C342        C460   1.492       .  S
C342        C365   1.498       .  S
C343        C385   1.486   1_556  S
C343        C586   1.480       .  S
C344        C345   1.497   1_556  S
C344        C545   1.490       .  S
C345        C346   1.341       .  D
C345        H347   1.086       .  S
C346        H348   1.088       .  S
C349        C442   1.503       .  S
C349        C350   1.345       .  D
C349        H351   1.086       .  S
C350        H352   1.087       .  S
C353        C354   1.334       .  D
C353        H355   1.086       .  S
C354        C438   1.478       .  S
C354        H356   1.087       .  S
C357        C358   1.341       .  D
C357        H359   1.086       .  S
C358        H360   1.087       .  S
C361        C362   1.342       .  D
C361        H363   1.087       .  S
C362        C538   1.482   1_554  S
C362        H364   1.086       .  S
C365        C366   1.339       .  D
C365        H367   1.086       .  S
C366        H368   1.088       .  S
C369        C370   1.345       .  D
C369        H371   1.087       .  S
C370        H372   1.087       .  S
C373        C437   1.492       .  S
C373        C374   1.338       .  D
C373        H375   1.087       .  S
C374        H376   1.088       .  S
C377        C378   1.337       .  D
C377        H379   1.088       .  S
C378        C537   1.473   1_554  S
C378        H380   1.086       .  S
C381        C382   1.340       .  D
C381        H383   1.086       .  S
C382        H384   1.088       .  S
C385        C386   1.347       .  D
C385        H387   1.086       .  S
C386        H388   1.087       .  S
C389        C390   1.342       .  D
C389        H391   1.088       .  S
C390        C441   1.467       .  S
C390        H392   1.086       .  S
Fe393       O409   2.091       .  S
Fe393       O399   2.055       .  S
Fe393       O406   2.047       .  S
Fe393       O398   2.077       .  S
Fe393       O404   1.982       .  S
Fe394       O397   2.089       .  S
Fe394       O401   2.052       .  S
Fe394       O405   2.095       .  S
Fe394       O410   2.066       .  S
Fe394       O404   1.982       .  S
Fe395       O413   2.040       .  S
Fe395       O400   2.060       .  S
Fe395       O407   2.051       .  S
Fe395       O396   2.035       .  S
Fe395       O404   1.978       .  S
O396        C403   1.261       .  A
O397        C411   1.274       .  A
O398        C403   1.271       .  A
O399        C402   1.270       .  A
O400        C412   1.265       .  A
O401        C414   1.263       .  A
C402        O407   1.265       .  A
C402        C484   1.464       .  S
C403        C487   1.467       .  S
O405        C408   1.276       .  A
O406        C408   1.266       .  A
C408        C480   1.469       .  S
O409        C414   1.271       .  A
O410        C412   1.268       .  A
C411        O413   1.263       .  A
C411        C468   1.473       .  S
C412        C472   1.473       .  S
C414        C475   1.478       .  S
Fe415       O431   2.058       .  S
Fe415       O421   2.074       .  S
Fe415       O428   2.075       .  S
Fe415       O420   2.053       .  S
Fe415       O426   1.978       .  S
Fe416       O419   2.081       .  S
Fe416       O423   2.082       .  S
Fe416       O427   2.074       .  S
Fe416       O432   2.092       .  S
Fe416       O426   1.984       .  S
Fe417       O435   2.032       .  S
Fe417       O422   2.034       .  S
Fe417       O429   2.048       .  S
Fe417       O418   2.043       .  S
Fe417       O426   1.981       .  S
O418        C425   1.261       .  A
O419        C433   1.270       .  A
O420        C425   1.267       .  A
O421        C424   1.270       .  A
O422        C434   1.264       .  A
O423        C436   1.273       .  A
C424        O429   1.263       .  A
C424        C444   1.471       .  S
C425        C448   1.461       .  S
O427        C430   1.270       .  A
O428        C430   1.269       .  A
C430        C464   1.482       .  S
O431        C436   1.267       .  A
O432        C434   1.274       .  A
C433        O435   1.262       .  A
C433        C456   1.473       .  S
C434        C451   1.477       .  S
C436        C459   1.475       .  S
C437        C467   1.487       .  S
C437       C1026   1.352   1_455  D
C438        C455   1.479       .  S
C438       C1025   1.353       .  D
C439        C574   1.496       .  S
C439        C479   1.500       .  S
C439        C440   1.362       .  D
C440        C558   1.488       .  S
C440        C463   1.498       .  S
C441        C483   1.468       .  S
C442        C443   1.488       .  S
C443        C444   1.338       .  D
C443        H445   1.087       .  S
C444        H446   1.087       .  S
C447        C540   1.472       .  S
C447        C448   1.333       .  D
C447        H449   1.087       .  S
C448        H450   1.088       .  S
C451        C452   1.349       .  D
C451        H453   1.087       .  S
C452        C536   1.478       .  S
C452        H454   1.086       .  S
C455        C456   1.345       .  D
C455        H457   1.087       .  S
C456        H458   1.085       .  S
C459        C460   1.342       .  D
C459        H461   1.087       .  S
C460        H462   1.086       .  S
C463        C464   1.346       .  D
C463        H465   1.087       .  S
C464        H466   1.087       .  S
C467        C468   1.336       .  D
C467        H469   1.086       .  S
C468        H470   1.088       .  S
C471        C535   1.490       .  S
C471        C472   1.341       .  D
C471        H473   1.087       .  S
C472        H474   1.087       .  S
C475        C476   1.344       .  D
C475        H477   1.087       .  S
C476        H478   1.086       .  S
C479        C480   1.342       .  D
C479        H481   1.087       .  S
C480        H482   1.085       .  S
C483        C484   1.335       .  D
C483        H485   1.086       .  S
C484        H486   1.088       .  S
C487        C488   1.336       .  D
C487        H489   1.088       .  S
C488        C539   1.479       .  S
C488        H490   1.086       .  S
Fe491       O507   2.078       .  S
Fe491       O497   2.071       .  S
Fe491       O504   2.077       .  S
Fe491       O496   2.068       .  S
Fe491       O502   1.969       .  S
Fe492       O495   2.040       .  S
Fe492       O499   2.083       .  S
Fe492       O503   2.046       .  S
Fe492       O508   2.085       .  S
Fe492       O502   1.964       .  S
Fe493       O511   2.081       .  S
Fe493       O498   2.071       .  S
Fe493       O505   2.071       .  S
Fe493       O494   2.073       .  S
Fe493       O502   1.964       .  S
O494        C501   1.271       .  A
O495        C509   1.263       .  A
O496        C501   1.276       .  A
O497        C500   1.267       .  A
O498        C510   1.268       .  A
O499        C512   1.273       .  A
C500        O505   1.269       .  A
C500        C582   1.477       .  S
C501        C585   1.476       .  S
O503        C506   1.264       .  A
O504        C506   1.268       .  A
C506        C578   1.467       .  S
O507        C512   1.275       .  A
O508        C510   1.271       .  A
C509        O511   1.273       .  A
C509        C566   1.465       .  S
C510        C570   1.485       .  S
C512        C573   1.486       .  S
Fe513       O529   2.074       .  S
Fe513       O519   2.051       .  S
Fe513       O526   2.054       .  S
Fe513       O518   2.067       .  S
Fe513       O524   1.974       .  S
Fe514       O517   2.049       .  S
Fe514       O521   2.065       .  S
Fe514       O525   2.055       .  S
Fe514       O530   2.059       .  S
Fe514       O524   1.965       .  S
Fe515       O533   2.078       .  S
Fe515       O520   2.095       .  S
Fe515       O527   2.095       .  S
Fe515       O516   2.082       .  S
Fe515       O524   1.979       .  S
O516        C523   1.274       .  A
O517        C531   1.263       .  A
O518        C523   1.270       .  A
O519        C522   1.264       .  A
O520        C532   1.274       .  A
O521        C534   1.269       .  A
C522        O527   1.273       .  A
C522        C542   1.478       .  S
C523        C546   1.480       .  S
O525        C528   1.266       .  A
O526        C528   1.263       .  A
C528        C562   1.471       .  S
O529        C534   1.272       .  A
O530        C532   1.269       .  A
C531        O533   1.274       .  A
C531        C554   1.473       .  S
C532        C549   1.478       .  S
C534        C557   1.476       .  S
C535        C565   1.478       .  S
C535       C1124   1.353   1_455  D
C536        C553   1.477       .  S
C536       C1123   1.357       .  D
C537        C577   1.485       .  S
C537        C538   1.352       .  D
C538        C561   1.472       .  S
C539        C581   1.494       .  S
C540        C541   1.499       .  S
C541        C542   1.344       .  D
C541        H543   1.086       .  S
C542        H544   1.087       .  S
C545        C546   1.340       .  D
C545        H547   1.086       .  S
C546        H548   1.087       .  S
C549        C550   1.348       .  D
C549        H551   1.084       .  S
C550        H552   1.086       .  S
C553        C554   1.333       .  D
C553        H555   1.086       .  S
C554        H556   1.088       .  S
C557        C558   1.342       .  D
C557        H559   1.087       .  S
C558        H560   1.087       .  S
C561        C562   1.340       .  D
C561        H563   1.086       .  S
C562        H564   1.087       .  S
C565        C566   1.335       .  D
C565        H567   1.086       .  S
C566        H568   1.088       .  S
C569        C570   1.346       .  D
C569        H571   1.086       .  S
C570        H572   1.087       .  S
C573        C574   1.342       .  D
C573        H575   1.087       .  S
C574        H576   1.086       .  S
C577        C578   1.344       .  D
C577        H579   1.087       .  S
C578        H580   1.086       .  S
C581        C582   1.351       .  D
C581        H583   1.086       .  S
C582        H584   1.085       .  S
C585        C586   1.338       .  D
C585        H587   1.087       .  S
C586        H588   1.086       .  S
Fe589       O605   2.075       .  S
Fe589       O595   2.063       .  S
Fe589       O602   2.050       .  S
Fe589       O594   2.058       .  S
Fe589       O600   1.985       .  S
Fe590       O593   2.073       .  S
Fe590       O597   2.050       .  S
Fe590       O601   2.090       .  S
Fe590       O606   2.059       .  S
Fe590       O600   1.986       .  S
Fe591       O609   2.066       .  S
Fe591       O596   2.063       .  S
Fe591       O603   2.061       .  S
Fe591       O592   2.070       .  S
Fe591       O600   1.977       .  S
O592        C599   1.269       .  A
O593        C607   1.269       .  A
O594        C599   1.269       .  A
O595        C598   1.267       .  A
O596        C608   1.266       .  A
O597        C610   1.265       .  A
C598        O603   1.265       .  A
C598        C680   1.468       .  S
C599        C683   1.476       .  S
O601        C604   1.272       .  A
O602        C604   1.264       .  A
C604        C676   1.473       .  S
O605        C610   1.271       .  A
O606        C608   1.267       .  A
C607        O609   1.270       .  A
C607        C664   1.479       .  S
C608        C668   1.467       .  S
C610        C671   1.469       .  S
Fe611       O627   2.045       .  S
Fe611       O617   2.071       .  S
Fe611       O624   2.053       .  S
Fe611       O616   2.049       .  S
Fe611       O622   1.984       .  S
Fe612       O615   2.063       .  S
Fe612       O619   2.059       .  S
Fe612       O623   2.070       .  S
Fe612       O628   2.054       .  S
Fe612       O622   1.981       .  S
Fe613       O631   2.058       .  S
Fe613       O618   2.082       .  S
Fe613       O625   2.068       .  S
Fe613       O614   2.060       .  S
Fe613       O622   1.978       .  S
O614        C621   1.268       .  A
O615        C629   1.269       .  A
O616        C621   1.263       .  A
O617        C620   1.269       .  A
O618        C630   1.272       .  A
O619        C632   1.265       .  A
C620        O625   1.270       .  A
C620        C640   1.481       .  S
C621        C644   1.464       .  S
O623        C626   1.270       .  A
O624        C626   1.268       .  A
C626        C660   1.472       .  S
O627        C632   1.264       .  A
O628        C630   1.265       .  A
C629        O631   1.266       .  A
C629        C652   1.468       .  S
C630        C647   1.477       .  S
C632        C655   1.463       .  S
C633        C663   1.484   1_556  S
C633        C863   1.486       .  S
C634        C844   1.489       .  S
C634        C651   1.483   1_556  S
C635        C770   1.480       .  S
C635        C675   1.499       .  S
C635        C636   1.357       .  D
C636        C754   1.496       .  S
C636        C659   1.482       .  S
C637        C679   1.484   1_556  S
C637        C880   1.469       .  S
C637        C932   1.351       .  D
C638        C639   1.486       .  S
C638        C839   1.489   1_554  S
C638        C931   1.358   1_545  D
C639        C640   1.344       .  D
C639        H641   1.086       .  S
C640        H642   1.087       .  S
C643        C736   1.482       .  S
C643        C644   1.337       .  D
C643        H645   1.087       .  S
C644        H646   1.087       .  S
C647        C648   1.342       .  D
C647        H649   1.088       .  S
C648        C732   1.488       .  S
C648        H650   1.086       .  S
C651        C652   1.339       .  D
C651        H653   1.086       .  S
C652        H654   1.088       .  S
C655        C656   1.339       .  D
C655        H657   1.087       .  S
C656        C832   1.471       .  S
C656        H658   1.087       .  S
C659        C660   1.342       .  D
C659        H661   1.086       .  S
C660        H662   1.087       .  S
C663        C664   1.343       .  D
C663        H665   1.086       .  S
C664        H666   1.087       .  S
C667        C731   1.488       .  S
C667        C668   1.343       .  D
C667        H669   1.087       .  S
C668        H670   1.087       .  S
C671        C672   1.337       .  D
C671        H673   1.088       .  S
C672        C831   1.483       .  S
C672        H674   1.086       .  S
C675        C676   1.342       .  D
C675        H677   1.086       .  S
C676        H678   1.087       .  S
C679        C680   1.341       .  D
C679        H681   1.087       .  S
C680        H682   1.086       .  S
C683        C684   1.344       .  D
C683        H685   1.087       .  S
C684        C735   1.482       .  S
C684        H686   1.086       .  S
Fe687       O703   2.065       .  S
Fe687       O693   2.081       .  S
Fe687       O700   2.075       .  S
Fe687       O692   2.050       .  S
Fe687       O698   1.976       .  S
Fe688       O691   2.041       .  S
Fe688       O695   2.062       .  S
Fe688       O699   2.052       .  S
Fe688       O704   2.080       .  S
Fe688       O698   1.978       .  S
Fe689       O707   2.083       .  S
Fe689       O694   2.059       .  S
Fe689       O701   2.067       .  S
Fe689       O690   2.076       .  S
Fe689       O698   1.977       .  S
O690        C697   1.270       .  A
O691        C705   1.261       .  A
O692        C697   1.269       .  A
O693        C696   1.270       .  A
O694        C706   1.268       .  A
O695        C708   1.270       .  A
C696        O701   1.268       .  A
C696        C778   1.479       .  S
C697        C781   1.475       .  S
O699        C702   1.265       .  A
O700        C702   1.267       .  A
C702        C774   1.474       .  S
O703        C708   1.273       .  A
O704        C706   1.273       .  A
C705        O707   1.270       .  A
C705        C762   1.471       .  S
C706        C766   1.473       .  S
C708        C769   1.470       .  S
Fe709       O725   2.046       .  S
Fe709       O715   2.095       .  S
Fe709       O722   2.094       .  S
Fe709       O714   2.048       .  S
Fe709       O720   1.962       .  S
Fe710       O713   2.047       .  S
Fe710       O717   2.099       .  S
Fe710       O721   2.047       .  S
Fe710       O726   2.098       .  S
Fe710       O720   1.964       .  S
Fe711       O729   2.075       .  S
Fe711       O716   2.037       .  S
Fe711       O723   2.031       .  S
Fe711       O712   2.091       .  S
Fe711       O720   1.964       .  S
O712        C719   1.273       .  A
O713        C727   1.266       .  A
O714        C719   1.265       .  A
O715        C718   1.274       .  A
O716        C728   1.265       .  A
O717        C730   1.273       .  A
C718        O723   1.261       .  A
C718        C738   1.470       .  S
C719        C742   1.474       .  S
O721        C724   1.267       .  A
O722        C724   1.275       .  A
C724        C758   1.474       .  S
O725        C730   1.264       .  A
O726        C728   1.274       .  A
C727        O729   1.272       .  A
C727        C750   1.468       .  S
C728        C745   1.479       .  S
C730        C753   1.477       .  S
C731        C761   1.487       .  S
C732        C749   1.473       .  S
C733        C868   1.482       .  S
C733        C773   1.485       .  S
C733        C734   1.357       .  D
C734        C852   1.483       .  S
C734        C757   1.481       .  S
C735        C777   1.497       .  S
C735       C1030   1.361       .  D
C736        C737   1.488       .  S
C736       C1029   1.349   1_545  D
C737        C738   1.336       .  D
C737        H739   1.086       .  S
C738        H740   1.088       .  S
C741        C834   1.484       .  S
C741        C742   1.341       .  D
C741        H743   1.086       .  S
C742        H744   1.088       .  S
C745        C746   1.347       .  D
C745        H747   1.087       .  S
C746        C830   1.484       .  S
C746        H748   1.086       .  S
C749        C750   1.339       .  D
C749        H751   1.086       .  S
C750        H752   1.088       .  S
C753        C754   1.344       .  D
C753        H755   1.088       .  S
C754        H756   1.086       .  S
C757        C758   1.341       .  D
C757        H759   1.086       .  S
C758        H760   1.088       .  S
C761        C762   1.338       .  D
C761        H763   1.086       .  S
C762        H764   1.088       .  S
C765        C829   1.486       .  S
C765        C766   1.340       .  D
C765        H767   1.086       .  S
C766        H768   1.087       .  S
C769        C770   1.338       .  D
C769        H771   1.088       .  S
C770        H772   1.086       .  S
C773        C774   1.344       .  D
C773        H775   1.087       .  S
C774        H776   1.085       .  S
C777        C778   1.348       .  D
C777        H779   1.086       .  S
C778        H780   1.085       .  S
C781        C782   1.341       .  D
C781        H783   1.086       .  S
C782        C833   1.480       .  S
C782        H784   1.086       .  S
Fe785       O801   2.066       .  S
Fe785       O791   2.057       .  S
Fe785       O798   2.059       .  S
Fe785       O790   2.048       .  S
Fe785       O796   1.980       .  S
Fe786       O789   2.060       .  S
Fe786       O793   2.063       .  S
Fe786       O797   2.055       .  S
Fe786       O802   2.073       .  S
Fe786       O796   1.980       .  S
Fe787       O805   2.046       .  S
Fe787       O792   2.066       .  S
Fe787       O799   2.059       .  S
Fe787       O788   2.056       .  S
Fe787       O796   1.982       .  S
O788        C795   1.265       .  A
O789        C803   1.265       .  A
O790        C795   1.267       .  A
O791        C794   1.268       .  A
O792        C804   1.269       .  A
O793        C806   1.269       .  A
C794        O799   1.267       .  A
C794        C876   1.467       .  S
C795        C879   1.466       .  S
O797        C800   1.267       .  A
O798        C800   1.266       .  A
C800        C872   1.468       .  S
O801        C806   1.267       .  A
O802        C804   1.269       .  A
C803        O805   1.266       .  A
C803        C860   1.468       .  S
C804        C864   1.478       .  S
C806        C867   1.477       .  S
Fe807       O823   2.067       .  S
Fe807       O813   2.079       .  S
Fe807       O820   2.076       .  S
Fe807       O812   2.056       .  S
Fe807       O818   1.975       .  S
Fe808       O811   2.039       .  S
Fe808       O815   2.065       .  S
Fe808       O819   2.039       .  S
Fe808       O824   2.071       .  S
Fe808       O818   1.975       .  S
Fe809       O827   2.081       .  S
Fe809       O814   2.064       .  S
Fe809       O821   2.058       .  S
Fe809       O810   2.086       .  S
Fe809       O818   1.988       .  S
O810        C817   1.273       .  A
O811        C825   1.263       .  A
O812        C817   1.267       .  A
O813        C816   1.270       .  A
O814        C826   1.268       .  A
O815        C828   1.267       .  A
C816        O821   1.268       .  A
C816        C836   1.481       .  S
C817        C840   1.474       .  S
O819        C822   1.263       .  A
O820        C822   1.271       .  A
C822        C856   1.467       .  S
O823        C828   1.269       .  A
O824        C826   1.269       .  A
C825        O827   1.272       .  A
C825        C848   1.464       .  S
C826        C843   1.474       .  S
C828        C851   1.476       .  S
C829        C859   1.475       .  S
C830        C847   1.485       .  S
C831        C871   1.479   1_554  S
C831        C832   1.350       .  D
C832        C855   1.478   1_554  S
C833        C875   1.475       .  S
C833       C1128   1.355       .  D
C834        C835   1.483       .  S
C834       C1127   1.358   1_545  D
C835        C836   1.345       .  D
C835        H837   1.086       .  S
C836        H838   1.087       .  S
C839        C840   1.343       .  D
C839        H841   1.087       .  S
C840        H842   1.086       .  S
C843        C844   1.345       .  D
C843        H845   1.087       .  S
C844        H846   1.086       .  S
C847        C848   1.337       .  D
C847        H849   1.087       .  S
C848        H850   1.085       .  S
C851        C852   1.342       .  D
C851        H853   1.087       .  S
C852        H854   1.086       .  S
C855        C856   1.337       .  D
C855        H857   1.086       .  S
C856        H858   1.088       .  S
C859        C860   1.337       .  D
C859        H861   1.087       .  S
C860        H862   1.087       .  S
C863        C864   1.344       .  D
C863        H865   1.087       .  S
C864        H866   1.087       .  S
C867        C868   1.342       .  D
C867        H869   1.086       .  S
C868        H870   1.086       .  S
C871        C872   1.339       .  D
C871        H873   1.087       .  S
C872        H874   1.087       .  S
C875        C876   1.340       .  D
C875        H877   1.086       .  S
C876        H878   1.088       .  S
C879        C880   1.338       .  D
C879        H881   1.087       .  S
C880        H882   1.086       .  S
Fe883       O899   2.059       .  S
Fe883       O889   2.051       .  S
Fe883       O896   2.052       .  S
Fe883       O888   2.040       .  S
Fe883       O894   1.980       .  S
Fe884       O887   2.076       .  S
Fe884       O891   2.040       .  S
Fe884       O895   2.068       .  S
Fe884       O900   2.039       .  S
Fe884       O894   1.979       .  S
Fe885       O903   2.076       .  S
Fe885       O890   2.082       .  S
Fe885       O897   2.083       .  S
Fe885       O886   2.074       .  S
Fe885       O894   1.984       .  S
O886        C893   1.269       .  A
O887        C901   1.270       .  A
O888        C893   1.264       .  A
O889        C892   1.268       .  A
O890        C902   1.271       .  A
O891        C904   1.261       .  A
C892        O897   1.272       .  A
C892        C974   1.473       .  S
C893        C977   1.472       .  S
O895        C898   1.270       .  A
O896        C898   1.264       .  A
C898        C970   1.470       .  S
O899        C904   1.268       .  A
O900        C902   1.261       .  A
C901        O903   1.271       .  A
C901        C958   1.482       .  S
C902        C962   1.469       .  S
C904        C965   1.464       .  S
Fe905       O921   2.077       .  S
Fe905       O911   2.059       .  S
Fe905       O918   2.065       .  S
Fe905       O910   2.068       .  S
Fe905       O916   1.979       .  S
Fe906       O909   2.099       .  S
Fe906       O913   2.057       .  S
Fe906       O917   2.094       .  S
Fe906       O922   2.057       .  S
Fe906       O916   1.985       .  S
Fe907       O925   2.054       .  S
Fe907       O912   2.054       .  S
Fe907       O919   2.054       .  S
Fe907       O908   2.074       .  S
Fe907       O916   1.982       .  S
O908        C915   1.271       .  A
O909        C923   1.275       .  A
O910        C915   1.268       .  A
O911        C914   1.268       .  A
O912        C924   1.267       .  A
O913        C926   1.265       .  A
C914        O919   1.265       .  A
C914        C934   1.465       .  S
C915        C938   1.481       .  S
O917        C920   1.275       .  A
O918        C920   1.268       .  A
C920        C954   1.485       .  S
O921        C926   1.269       .  A
O922        C924   1.265       .  A
C923        O925   1.268       .  A
C923        C946   1.490       .  S
C924        C941   1.464       .  S
C926        C949   1.479       .  S
C927        C957   1.496   1_556  S
C927       C1157   1.492       .  S
C928       C1138   1.500   1_554  S
C928        C945   1.495       .  S
C929       C1064   1.499       .  S
C929        C969   1.482       .  S
C929        C930   1.358       .  D
C930       C1048   1.494       .  S
C930        C953   1.502       .  S
C931        C973   1.483       .  S
C931       C1174   1.481   1_554  S
C932        C933   1.477   1_556  S
C932       C1133   1.486       .  S
C933        C934   1.336       .  D
C933        H935   1.087       .  S
C934        H936   1.087       .  S
C937       C1030   1.490       .  S
C937        C938   1.344       .  D
C937        H939   1.086       .  S
C938        H940   1.087       .  S
C941        C942   1.339       .  D
C941        H943   1.086       .  S
C942       C1026   1.479       .  S
C942        H944   1.087       .  S
C945        C946   1.352       .  D
C945        H947   1.086       .  S
C946        H948   1.086       .  S
C949        C950   1.347       .  D
C949        H951   1.087       .  S
C950       C1126   1.485       .  S
C950        H952   1.086       .  S
C953        C954   1.342       .  D
C953        H955   1.087       .  S
C954        H956   1.087       .  S
C957        C958   1.345       .  D
C957        H959   1.087       .  S
C958        H960   1.087       .  S
C961       C1025   1.488       .  S
C961        C962   1.337       .  D
C961        H963   1.087       .  S
C962        H964   1.086       .  S
C965        C966   1.335       .  D
C965        H967   1.088       .  S
C966       C1125   1.472   1_554  S
C966        H968   1.086       .  S
C969        C970   1.337       .  D
C969        H971   1.087       .  S
C970        H972   1.087       .  S
C973        C974   1.346       .  D
C973        H975   1.087       .  S
C974        H976   1.087       .  S
C977        C978   1.345       .  D
C977        H979   1.087       .  S
C978       C1029   1.473       .  S
C978        H980   1.086       .  S
Fe981       O997   2.079       .  S
Fe981       O987   2.078       .  S
Fe981       O994   2.077       .  S
Fe981       O986   2.071       .  S
Fe981       O992   1.981       .  S
Fe982       O985   2.060       .  S
Fe982       O989   2.069       .  S
Fe982       O993   2.065       .  S
Fe982       O998   2.075       .  S
Fe982       O992   1.968       .  S
Fe983      O1001   2.066       .  S
Fe983       O988   2.050       .  S
Fe983       O995   2.037       .  S
Fe983       O984   2.050       .  S
Fe983       O992   1.979       .  S
O984        C991   1.262       .  A
O985        C999   1.268       .  A
O986        C991   1.269       .  A
O987        C990   1.275       .  A
O988       C1000   1.264       .  A
O989       C1002   1.267       .  A
C990        O995   1.265       .  A
C990       C1072   1.463       .  S
C991       C1075   1.472       .  S
O993        C996   1.270       .  A
O994        C996   1.272       .  A
C996       C1068   1.474       .  S
O997       C1002   1.269       .  A
O998       C1000   1.271       .  A
C999       O1001   1.266       .  A
C999       C1056   1.475       .  S
C1000      C1060   1.471       .  S
C1002      C1063   1.479       .  S
Fe1003     O1019   2.118       .  S
Fe1003     O1009   2.042       .  S
Fe1003     O1016   2.047       .  S
Fe1003     O1008   2.110       .  S
Fe1003     O1014   1.950       .  S
Fe1004     O1007   2.093       .  S
Fe1004     O1011   2.032       .  S
Fe1004     O1015   2.097       .  S
Fe1004     O1020   2.038       .  S
Fe1004     O1014   1.952       .  S
Fe1005     O1023   2.030       .  S
Fe1005     O1010   2.085       .  S
Fe1005     O1017   2.090       .  S
Fe1005     O1006   2.019       .  S
Fe1005     O1014   1.952       .  S
O1006      C1013   1.260       .  A
O1007      C1021   1.271       .  A
O1008      C1013   1.279       .  A
O1009      C1012   1.263       .  A
O1010      C1022   1.275       .  A
O1011      C1024   1.265       .  A
C1012      O1017   1.272       .  A
C1012      C1032   1.470       .  S
C1013      C1036   1.468       .  S
O1015      C1018   1.272       .  A
O1016      C1018   1.262       .  A
C1018      C1052   1.477       .  S
O1019      C1024   1.282       .  A
O1020      C1022   1.266       .  A
C1021      O1023   1.264       .  A
C1021      C1044   1.474       .  S
C1022      C1039   1.464       .  S
C1024      C1047   1.471       .  S
C1025      C1055   1.485       .  S
C1026      C1043   1.476       .  S
C1027      C1162   1.486       .  S
C1027      C1067   1.486       .  S
C1027      C1028   1.361       .  D
C1028      C1146   1.492       .  S
C1028      C1051   1.496       .  S
C1029      C1071   1.468       .  S
C1030      C1031   1.482       .  S
C1031      C1032   1.339       .  D
C1031      H1033   1.086       .  S
C1032      H1034   1.088       .  S
C1035      C1128   1.488       .  S
C1035      C1036   1.332       .  D
C1035      H1037   1.085       .  S
C1036      H1038   1.088       .  S
C1039      C1040   1.338       .  D
C1039      H1041   1.088       .  S
C1040      C1124   1.473       .  S
C1040      H1042   1.086       .  S
C1043      C1044   1.343       .  D
C1043      H1045   1.086       .  S
C1044      H1046   1.087       .  S
C1047      C1048   1.338       .  D
C1047      H1049   1.087       .  S
C1048      H1050   1.087       .  S
C1051      C1052   1.343       .  D
C1051      H1053   1.086       .  S
C1052      H1054   1.087       .  S
C1055      C1056   1.340       .  D
C1055      H1057   1.086       .  S
C1056      H1058   1.087       .  S
C1059      C1123   1.487       .  S
C1059      C1060   1.339       .  D
C1059      H1061   1.087       .  S
C1060      H1062   1.087       .  S
C1063      C1064   1.346       .  D
C1063      H1065   1.087       .  S
C1064      H1066   1.087       .  S
C1067      C1068   1.343       .  D
C1067      H1069   1.086       .  S
C1068      H1070   1.088       .  S
C1071      C1072   1.332       .  D
C1071      H1073   1.086       .  S
C1072      H1074   1.088       .  S
C1075      C1076   1.338       .  D
C1075      H1077   1.088       .  S
C1076      C1127   1.482       .  S
C1076      H1078   1.086       .  S
Fe1079     O1095   2.058       .  S
Fe1079     O1085   2.070       .  S
Fe1079     O1092   2.076       .  S
Fe1079     O1084   2.056       .  S
Fe1079     O1090   1.966       .  S
Fe1080     O1083   2.053       .  S
Fe1080     O1087   2.085       .  S
Fe1080     O1091   2.058       .  S
Fe1080     O1096   2.088       .  S
Fe1080     O1090   1.963       .  S
Fe1081     O1099   2.093       .  S
Fe1081     O1086   2.063       .  S
Fe1081     O1093   2.065       .  S
Fe1081     O1082   2.086       .  S
Fe1081     O1090   1.963       .  S
O1082      C1089   1.273       .  A
O1083      C1097   1.266       .  A
O1084      C1089   1.272       .  A
O1085      C1088   1.268       .  A
O1086      C1098   1.268       .  A
O1087      C1100   1.272       .  A
C1088      O1093   1.268       .  A
C1088      C1170   1.472       .  S
C1089      C1173   1.479       .  S
O1091      C1094   1.267       .  A
O1092      C1094   1.269       .  A
C1094      C1166   1.472       .  S
O1095      C1100   1.271       .  A
O1096      C1098   1.273       .  A
C1097      O1099   1.273       .  A
C1097      C1154   1.475       .  S
C1098      C1158   1.480       .  S
C1100      C1161   1.480       .  S
Fe1101     O1117   2.091       .  S
Fe1101     O1107   2.038       .  S
Fe1101     O1114   2.042       .  S
Fe1101     O1106   2.082       .  S
Fe1101     O1112   1.968       .  S
Fe1102     O1105   2.073       .  S
Fe1102     O1109   2.053       .  S
Fe1102     O1113   2.070       .  S
Fe1102     O1118   2.045       .  S
Fe1102     O1112   1.960       .  S
Fe1103     O1121   2.063       .  S
Fe1103     O1108   2.108       .  S
Fe1103     O1115   2.102       .  S
Fe1103     O1104   2.060       .  S
Fe1103     O1112   1.974       .  S
O1104      C1111   1.270       .  A
O1105      C1119   1.268       .  A
O1106      C1111   1.272       .  A
O1107      C1110   1.262       .  A
O1108      C1120   1.277       .  A
O1109      C1122   1.267       .  A
C1110      O1115   1.276       .  A
C1110      C1130   1.473       .  S
C1111      C1134   1.477       .  S
O1113      C1116   1.269       .  A
O1114      C1116   1.261       .  A
C1116      C1150   1.469       .  S
O1117      C1122   1.274       .  A
O1118      C1120   1.265       .  A
C1119      O1121   1.270       .  A
C1119      C1142   1.478       .  S
C1120      C1137   1.475       .  S
C1122      C1145   1.476       .  S
C1123      C1153   1.492       .  S
C1124      C1141   1.484       .  S
C1125      C1165   1.487       .  S
C1125      C1126   1.354   1_556  D
C1126      C1149   1.472   1_554  S
C1127      C1169   1.486       .  S
C1128      C1129   1.500       .  S
C1129      C1130   1.341       .  D
C1129      H1131   1.086       .  S
C1130      H1132   1.087       .  S
C1133      C1134   1.343       .  D
C1133      H1135   1.086       .  S
C1134      H1136   1.087       .  S
C1137      C1138   1.343       .  D
C1137      H1139   1.085       .  S
C1138      H1140   1.086       .  S
C1141      C1142   1.341       .  D
C1141      H1143   1.086       .  S
C1142      H1144   1.087       .  S
C1145      C1146   1.341       .  D
C1145      H1147   1.087       .  S
C1146      H1148   1.085       .  S
C1149      C1150   1.337       .  D
C1149      H1151   1.086       .  S
C1150      H1152   1.087       .  S
C1153      C1154   1.342       .  D
C1153      H1155   1.086       .  S
C1154      H1156   1.087       .  S
C1157      C1158   1.345       .  D
C1157      H1159   1.086       .  S
C1158      H1160   1.087       .  S
C1161      C1162   1.343       .  D
C1161      H1163   1.086       .  S
C1162      H1164   1.086       .  S
C1165      C1166   1.347       .  D
C1165      H1167   1.086       .  S
C1166      H1168   1.087       .  S
C1169      C1170   1.348       .  D
C1169      H1171   1.087       .  S
C1170      H1172   1.087       .  S
C1173      C1174   1.341       .  D
C1173      H1175   1.087       .  S
C1174      H1176   1.086       .  S
