geometry optimzed in LAMMPS
_audit_creation_date              2020-12-01 
_audit_creation_method            'lammps2cif' 
_symmetry_space_group_name_H-M    'P1' 
_symmetry_Int_Tables_number       1 
_symmetry_cell_setting            triclinic 
loop_ 
_symmetry_equiv_pos_as_xyz 
  x,y,z 
_cell_length_a                    44.59699949 
_cell_length_b                    44.67014558955873 
_cell_length_c                    45.744742815128035 
_cell_angle_alpha                 90.4684094790028 
_cell_angle_beta                  90.45231740919867 
_cell_angle_gamma                 120.14632518782842 
loop_ 
_atom_site_label 
_atom_site_type_symbol 
_atom_site_fract_x 
_atom_site_fract_y 
_atom_site_fract_z 
_atom_site_charge 
O1          O  0.38399881  0.10399498  0.13042823    -0.85600
O2          O  0.42948149  0.15643223  0.09710584    -0.82600
C3          C  0.44745072  0.18162255  0.11477545     0.97900
O4          O  0.47136340  0.18242559  0.12993474    -0.82600
O5          O  0.49751186  0.15726560  0.16927860    -0.85300
C6          C  0.47459240  0.14684315  0.18899817     1.02400
O7          O  0.44486250  0.12152070  0.18359320    -0.78000
O8          O  0.38790716  0.06601717  0.15687866    -0.78200
C9          C  0.37092418  0.08023311  0.14864276     1.02400
O10         O  0.39755890  0.05311153  0.10063780    -0.85600
O11         O  0.44527399  0.10679317  0.06824194    -0.82600
C12         C  0.47294061  0.13297679  0.06094444     0.97900
O13         O  0.49142808  0.15533427  0.08051794    -0.82600
O14         O  0.01245718  0.12320226  0.12128514    -0.85300
C15         C  0.01267602  0.10589519  0.14294729     1.02400
O16         O  0.48961832  0.09703785  0.16227188    -0.78100
O17         O  0.43528189  0.04953060  0.12966399    -0.78200
C18         C  0.41202695  0.03652154  0.11023434     1.02400
Cr19       Cr  0.41647095  0.10572308  0.10083318     1.93700
Cr20       Cr  0.49055069  0.15188333  0.12519473     1.93200
Cr21       Cr  0.44005277  0.08576793  0.15610581     1.39100
O22         O  0.44905313  0.11440216  0.12697849    -1.23300
O23         O  0.38294124  0.27157820  0.11668563    -0.85600
O24         O  0.32612593  0.25793173  0.08560104    -0.82600
C25         C  0.30494087  0.24911326  0.10656574     0.97900
O26         O  0.30635975  0.27196748  0.12370304    -0.82600
O27         O  0.33318236  0.33284508  0.15628785    -0.85300
C28         C  0.35140706  0.33013361  0.17653690     1.02400
O29         O  0.37756422  0.32790543  0.16991168    -0.78000
O30         O  0.42507786  0.31847442  0.13711825    -0.78200
C31         C  0.41123622  0.28639910  0.13024778     1.02400
O32         O  0.42835122  0.32972094  0.08107525    -0.85600
O33         O  0.36805061  0.32031451  0.05312594    -0.82600
C34         C  0.33762396  0.31393314  0.04830494     0.97900
O35         O  0.31746341  0.30872016  0.06963029    -0.82600
O36         O  0.34988492  0.36946184  0.10145271    -0.85300
C37         C  0.37340134  0.39403475  0.11614360     1.02400
O38         O  0.39095252  0.38820905  0.13513487    -0.78100
O39         O  0.43272907  0.37583491  0.10157629    -0.78200
C40         C  0.44615711  0.36186658  0.08716741     1.02400
Cr41       Cr  0.37599469  0.29689641  0.08557623     1.93700
Cr42       Cr  0.32940089  0.32087406  0.11277167     1.93200
Cr43       Cr  0.40411196  0.35055131  0.13466441     1.39100
O44         O  0.36978716  0.32278655  0.11114574    -1.23300
O45         O  0.21090194  0.04044164  0.17491823    -0.85600
O46         O  0.21174930  0.08979606  0.14115278    -0.82600
C47         C  0.20556094  0.10353418  0.11996835     0.97900
O48         O  0.17747632  0.08703499  0.10557545    -0.82600
O49         O  0.17739497  0.03160939  0.08010942    -0.85300
C50         C  0.17035732  0.00156033  0.07325344     1.02400
O51         O  0.15764330  0.47802516  0.09307808    -0.78000
O52         O  0.20613057  0.00602052  0.13841508    -0.78200
C53         C  0.22414220  0.02721885  0.15843144     1.02400
O54         O  0.14040940  0.02053262  0.19138404    -0.85600
O55         O  0.14353860  0.07436093  0.15930219    -0.82600
C56         C  0.11618773  0.06410678  0.14382589     0.97900
O57         O  0.10809618  0.04153457  0.12408897    -0.82600
O58         O  0.10444009  0.48695371  0.09394619    -0.85300
C59         C  0.08849667  0.46069773  0.11022582     1.02400
O60         O  0.10289103  0.45897295  0.13363352    -0.78100
O61         O  0.15096669  0.48013532  0.18125437    -0.78200
C62         C  0.14265442  0.49606582  0.19971136     1.02400
Cr63       Cr  0.17502465  0.05390113  0.16464139     1.93700
Cr64       Cr  0.14305546  0.03584902  0.10321263     1.93200
Cr65       Cr  0.15433703  0.48358659  0.13684862     1.39100
O66         O  0.15731908  0.02443918  0.13498634    -1.23300
O67         O  0.26787155  0.32296352  0.32659246    -0.85600
O68         O  0.26812112  0.37183455  0.36248980    -0.82600
C69         C  0.27474422  0.39237386  0.38371961     0.97900
O70         O  0.30391845  0.40532300  0.39644875    -0.82600
O71         O  0.30297258  0.34946404  0.42295641    -0.85300
C72         C  0.30827322  0.32493505  0.42820597     1.02400
O73         O  0.32021055  0.31406936  0.40819871    -0.78000
O74         O  0.27341018  0.29321649  0.36202836    -0.78200
C75         C  0.25542358  0.29580727  0.34189384     1.02400
O76         O  0.33738366  0.37290146  0.30941832    -0.85600
O77         O  0.33596304  0.42365533  0.34269457    -0.82600
C78         C  0.36502666  0.43955160  0.35597387     0.97900
O79         O  0.37232336  0.42566407  0.37642322    -0.82600
O80         O  0.37413085  0.37589779  0.40795177    -0.85300
C81         C  0.39036750  0.36654233  0.39111895     1.02400
O82         O  0.37587193  0.34917542  0.36806029    -0.78100
O83         O  0.32809139  0.32154392  0.32040357    -0.78200
C84         C  0.33615871  0.34519459  0.30176569     1.02400
Cr85       Cr  0.30379952  0.37207991  0.33748330     1.93700
Cr86       Cr  0.33695507  0.38698442  0.39850583     1.93200
Cr87       Cr  0.32432269  0.32226532  0.36467382     1.39100
O88         O  0.32179122  0.36051359  0.36672278    -1.23300
O89         O  0.09233346  0.37940138  0.39336869    -0.85600
O90         O  0.14992694  0.42376059  0.42127403    -0.82600
C91         C  0.17081739  0.43163109  0.40015230     0.97900
O92         O  0.17118680  0.45098489  0.38000194    -0.82600
O93         O  0.14694613  0.48345342  0.34221648    -0.85300
C94         C  0.12833627  0.46022126  0.32329505     1.02400
O95         O  0.10268469  0.43260804  0.33175039    -0.78000
O96         O  0.05212846  0.38168172  0.36789193    -0.78200
C97         C  0.06441407  0.36417467  0.37967170     1.02400
O98         O  0.04977244  0.40107776  0.42293322    -0.85600
O99         O  0.11156289  0.45366108  0.44774418    -0.82600
C100        C  0.14315833  0.47539049  0.45146298     0.97900
O101        O  0.16317158  0.48585720  0.42966186    -0.82600
O102        O  0.13248472  0.01152718  0.39260487    -0.85300
C103        C  0.10982200  0.01148762  0.37603641     1.02400
O104        O  0.09188361  0.48629594  0.35876097    -0.78100
O105        O  0.04699435  0.43856813  0.39473194    -0.78200
C106        C  0.03303299  0.41482667  0.41276977     1.02400
Cr107      Cr  0.10126961  0.41657123  0.41966933     1.93700
Cr108      Cr  0.15069917  0.48066649  0.38637771     1.93200
Cr109      Cr  0.07583777  0.43520976  0.36469100     1.39100
O110        O  0.10921939  0.44409697  0.39013332    -1.23300
O111        O  0.09790221  0.21017873  0.36333077    -0.85600
O112        O  0.05444336  0.21828631  0.39920464    -0.82600
C113        C  0.03485110  0.22409599  0.38256660     0.97900
O114        O  0.01055381  0.20005682  0.36837806    -0.82600
O115        O  0.48283559  0.14610388  0.33100660    -0.85300
C116        C  0.00456612  0.15891300  0.30956999     1.02400
O117        O  0.03442452  0.16297770  0.31315137    -0.78000
O118        O  0.09304110  0.16652185  0.33815328    -0.78200
C119        C  0.11028660  0.19817578  0.34536796     1.02400
O120        O  0.08802812  0.14847045  0.39401408    -0.85600
O121        O  0.04240922  0.15613464  0.42990027    -0.82600
C122        C  0.51449778  0.15370128  0.43798170     0.97900
O123        O  0.49480326  0.15584046  0.41887134    -0.82600
O124        O  0.47090033  0.10028800  0.37992708    -0.85300
C125        C  0.46911682  0.08173301  0.35842946     1.02400
O126        O  0.49156751  0.09431710  0.33854800    -0.78100
O127        O  0.04762617  0.10457440  0.36824603    -0.78200
C128        C  0.07408714  0.11724780  0.38443956     1.02400
Cr129      Cr  0.06819384  0.18132099  0.39503727     1.93700
Cr130      Cr  0.49281775  0.15056674  0.37456471     1.93200
Cr131      Cr  0.04117337  0.13409229  0.34122401     1.39100
O132        O  0.03394767  0.15541461  0.37053742    -1.23300
C133        C  0.04211926  0.30776754  0.35395138    -0.06000
C134        C  0.04717190  0.32599002  0.38023558    -0.00100
C135        C  0.04476608  0.30910394  0.40726990    -0.08600
C136        C  0.04175435  0.27635632  0.40674989    -0.06000
C137        C  0.03855643  0.25884334  0.38058802    -0.00100
C138        C  0.03667517  0.27376589  0.35363355    -0.08500
C139        C  0.02960375  0.25439764  0.32460769     0.61800
H140        H  0.04394824  0.32091365  0.33367704     0.12500
H141        H  0.04147049  0.26380914  0.42700868     0.12500
C142        C  0.04478107  0.32497605  0.43690427     0.62100
F143        F  0.03393507  0.27547719  0.30110573    -0.23100
F144        F  0.99579278  0.22716755  0.32371175    -0.20400
F145        F  0.05191709  0.24168941  0.32120753    -0.20100
F146        F  0.02005095  0.33485839  0.43672198    -0.20200
F147        F  0.07690919  0.35322088  0.44347766    -0.18700
F148        F  0.03662219  0.30156478  0.45931717    -0.23200
C149        C  0.08959744  0.04467202  0.40507276    -0.06000
C150        C  0.10346949  0.04081530  0.37873482    -0.00100
C151        C  0.11309116  0.06605525  0.35689411    -0.08600
C152        C  0.10693287  0.09363453  0.36157857    -0.06000
C153        C  0.09072293  0.09610836  0.38695754    -0.00100
C154        C  0.08206504  0.07150616  0.40919926    -0.08500
C155        C  0.06357881  0.07292477  0.43637464     0.61800
H156        H  0.08339358  0.02562801  0.42190296     0.12500
H157        H  0.11259380  0.11232248  0.34448956     0.12500
C158        C  0.12979360  0.06380321  0.32889032     0.62100
F159        F  0.05966130  0.04818758  0.45641261    -0.23100
F160        F  0.03100605  0.06721548  0.42880009    -0.20400
F161        F  0.08244501  0.10518965  0.44963891    -0.20100
F162        F  0.10694847  0.53348407  0.31455540    -0.20200
F163        F  0.15978332  0.06326812  0.33563852    -0.20500
F164        F  0.13846853  0.09176044  0.31097619    -0.23200
C165        C  0.38120943  0.50035188  0.35854497    -0.06000
C166        C  0.39011401  0.47575513  0.34980397    -0.00100
C167        C  0.42472839  0.48647143  0.34215626    -0.08600
C168        C  0.44906735  0.02118748  0.34487580    -0.06000
C169        C  0.44068084  0.04554389  0.35561341    -0.00100
C170        C  0.40568849  0.03499474  0.36208611    -0.08500
C171        C  0.39497330  0.05995381  0.37428459     0.61800
H172        H  0.35456170  0.49140386  0.36422654     0.12500
H173        H  0.47579375  0.02948393  0.33964731     0.12500
C174        C  0.43676719  0.46214658  0.33104588     0.62100
F175        F  0.35929326  0.04473338  0.37607933    -0.23100
F176        F  0.40669647  0.08846131  0.35654190    -0.20400
F177        F  0.40875586  0.07064838  0.40214141    -0.20100
F178        F  0.45340792  0.47411158  0.30470527    -0.20200
F179        F  0.40991778  0.42863041  0.32644257    -0.20500
F180        F  0.45992789  0.46160060  0.35102075    -0.23200
C181        C  0.17032049  0.20933441  0.34342569    -0.06000
C182        C  0.14674131  0.22036895  0.33651311    -0.00100
C183        C  0.15932309  0.25435176  0.32624797    -0.08600
C184        C  0.19525213  0.27754025  0.32656632    -0.06000
C185        C  0.21885987  0.26780996  0.33688405    -0.00100
C186        C  0.20640404  0.23249845  0.34372569    -0.08500
C187        C  0.23060745  0.21915868  0.35201423     0.61800
H188        H  0.16021518  0.18304089  0.35083056     0.12500
H189        H  0.20490216  0.30420627  0.32051907     0.12500
C190        C  0.13484392  0.26627876  0.31555886     0.62100
F191        F  0.21377038  0.18333944  0.35085449    -0.23100
F192        F  0.24315317  0.22973574  0.38020356    -0.20400
F193        F  0.25801972  0.23154523  0.33283996    -0.20100
F194        F  0.11753230  0.26994858  0.33895498    -0.20200
F195        F  0.11112864  0.24219945  0.29587102    -0.20500
F196        F  0.15233735  0.29778645  0.30159520    -0.23200
C197        C  0.22808110  0.43897102  0.41300011    -0.06000
C198        C  0.19565167  0.41906343  0.39930010    -0.00100
C199        C  0.18834586  0.38896673  0.38332432    -0.08600
C200        C  0.21468334  0.38092941  0.37991712    -0.06000
C201        C  0.24806446  0.40164053  0.39217827    -0.00100
C202        C  0.25452084  0.43055388  0.41022247    -0.08500
C203        C  0.28876725  0.45279506  0.42630012     0.61800
H204        H  0.23266994  0.46164374  0.42546457     0.12500
H205        H  0.20914423  0.35803178  0.36736425     0.12500
C206        C  0.15255600  0.36475019  0.37063717     0.62100
F207        F  0.28857772  0.47876831  0.44289938    -0.23100
F208        F  0.31531662  0.46836713  0.40651974    -0.20400
F209        F  0.29524934  0.43251158  0.44504004    -0.20100
F210        F  0.14183489  0.38272450  0.35304118    -0.20200
F211        F  0.12973124  0.34968888  0.39333188    -0.20500
F212        F  0.15181116  0.33850941  0.35385178    -0.23200
C213        C  0.44757421  0.41055203  0.41051749    -0.06000
C214        C  0.42647154  0.37677363  0.39942555    -0.00100
C215        C  0.43960940  0.35375433  0.39868429    -0.08600
C216        C  0.47443606  0.36633082  0.40711357    -0.06000
C217        C  0.99537339  0.39983143  0.41666848    -0.00100
C218        C  0.48202146  0.42284715  0.41934720    -0.08500
C219        C  0.00098824  0.45813978  0.43246561     0.61800
H220        H  0.43720719  0.42790171  0.41180954     0.12500
H221        H  0.48575885  0.35008993  0.40389879     0.12500
C222        C  0.41731174  0.31634530  0.38870992     0.62100
F223        F  0.98209220  0.46214105  0.45444375    -0.23100
F224        F  0.00611781  0.48128730  0.41050028    -0.20400
F225        F  0.03280258  0.46602713  0.44428017    -0.20100
F226        F  0.40952694  0.31499537  0.35925164    -0.20200
F227        F  0.38690835  0.30066957  0.40438891    -0.20500
F228        F  0.43401127  0.29762404  0.39293997    -0.23200
C229        C  0.15180460  0.00209895  0.28275170    -0.06000
C230        C  0.13386453  0.46769914  0.29123513    -0.00100
C231        C  0.12083409  0.44184802  0.26865639    -0.08600
C232        C  0.12443133  0.45222679  0.23914765    -0.06000
C233        C  0.13925745  0.48712658  0.23138427    -0.00100
C234        C  0.15422423  0.01241027  0.25352275    -0.08500
C235        C  0.17174813  0.05098923  0.24718353     0.61800
H236        H  0.16220804  0.02171543  0.29990777     0.12500
H237        H  0.11467088  0.43286303  0.22170437     0.12500
C238        C  0.10332368  0.40348070  0.27528030     0.62100
F239        F  0.18623818  0.07122098  0.27208930    -0.23100
F240        F  0.14771854  0.05891294  0.23596470    -0.20400
F241        F  0.19813885  0.06005343  0.22746636    -0.20100
F242        F  0.07111783  0.39254725  0.28722988    -0.20200
F243        F  0.12357933  0.39737664  0.29463034    -0.20500
F244        F  0.09846059  0.38372989  0.25031181    -0.23200
C245        C  0.18452739  0.02170610  0.02233806    -0.06000
C246        C  0.17112339  0.49274605  0.04212714    -0.00100
C247        C  0.15229389  0.45858703  0.03020216    -0.08600
C248        C  0.14598025  0.45437480  0.50003951    -0.06000
C249        C  0.15691500  0.48290496  0.48165062    -0.00100
C250        C  0.17723828  0.01726904  0.49238675    -0.08500
C251        C  0.18912571  0.04861575  0.47309802     0.61800
H252        H  0.19970895  0.04769184  0.03126601     0.12500
H253        H  0.13017889  0.42867753  0.49062323     0.12500
C254        C  0.13746110  0.42630576  0.04877978     0.62100
F255        F  0.20724093  0.07934531  0.48884813    -0.23100
F256        F  0.16398678  0.54844427  0.46032968    -0.20400
F257        F  0.21063138  0.04834940  0.45163381    -0.20100
F258        F  0.11035888  0.42372270  0.06508950    -0.20200
F259        F  0.16299026  0.42769981  0.06707018    -0.20500
F260        F  0.12472289  0.39640925  0.03186553    -0.23200
C261        C  0.30124283  0.32140472  0.01098845    -0.06000
C262        C  0.32528619  0.31087553  0.01764100    -0.00100
C263        C  0.33697284  0.29751618  0.99486416    -0.08600
C264        C  0.32919231  0.30035175  0.46581700    -0.06000
C265        C  0.30765166  0.31389556  0.45891224    -0.00100
C266        C  0.29126099  0.32150041  0.48199391    -0.08500
C267        C  0.26384542  0.33145895  0.47637983     0.61800
H268        H  0.29126757  0.33005958  0.02866052     0.12500
H269        H  0.34076760  0.29346386  0.44822203     0.12500
C270        C  0.35899067  0.28085878  0.00062881     0.62100
F271        F  0.24558240  0.33020355  0.00082250    -0.23100
F272        F  0.24151294  0.31096537  0.45416779    -0.20400
F273        F  0.27944395  0.36588523  0.46872337    -0.20100
F274        F  0.34452090  0.25689040  0.02267659    -0.20200
F275        F  0.39241042  0.30585848  0.00852567    -0.20500
F276        F  0.36461974  0.26635182  0.47562978    -0.23200
C277        C  0.32785520  0.35489226  0.24986370    -0.06000
C278        C  0.33987012  0.33950091  0.26999653    -0.00100
C279        C  0.35390632  0.31936075  0.25913663    -0.08600
C280        C  0.35569604  0.31584583  0.22852890    -0.06000
C281        C  0.34416536  0.33177331  0.20834848    -0.00100
C282        C  0.32982190  0.35165328  0.21937974    -0.08500
C283        C  0.31785265  0.37072552  0.19942745     0.61800
H284        H  0.31663563  0.36973023  0.25833631     0.12500
H285        H  0.36666842  0.30078231  0.22004529     0.12500
C286        C  0.36827484  0.30283364  0.27954645     0.62100
F287        F  0.30687246  0.39016308  0.21491137    -0.23100
F288        F  0.29030908  0.34718017  0.18216362    -0.20400
F289        F  0.34500688  0.39314424  0.18204965    -0.20100
F290        F  0.34174564  0.27724200  0.29554055    -0.20200
F291        F  0.39261772  0.32775068  0.29835881    -0.20500
F292        F  0.38424258  0.28780225  0.26441869    -0.23200
C293        C  0.26949360  0.18954464  0.08594314    -0.06000
C294        C  0.27810498  0.21207651  0.11031937    -0.00100
C295        C  0.26190590  0.19838625  0.13756115    -0.08600
C296        C  0.23811083  0.16278960  0.13913720    -0.06000
C297        C  0.22980352  0.14054935  0.11488602    -0.00100
C298        C  0.24554587  0.15384182  0.08777788    -0.08500
C299        C  0.23823028  0.13021418  0.06141750     0.61800
H300        H  0.28185719  0.20009406  0.06529821     0.12500
H301        H  0.22544992  0.15176170  0.15960317     0.12500
C302        C  0.26975148  0.22047889  0.16522319     0.62100
F303        F  0.25782408  0.14809361  0.03759960    -0.23100
F304        F  0.20362137  0.11485081  0.05340468    -0.20400
F305        F  0.24608361  0.10479037  0.06825374    -0.20100
F306        F  0.25854549  0.24404165  0.16167829    -0.20200
F307        F  0.30500474  0.23780099  0.17127603    -0.20500
F308        F  0.25312870  0.20077384  0.18937313    -0.23200
C309        C  0.03473241  0.43999711  0.07993678    -0.06000
C310        C  0.05322576  0.43206574  0.10069568    -0.00100
C311        C  0.03791474  0.39728940  0.11057350    -0.08600
C312        C  0.50353787  0.37285240  0.10285198    -0.06000
C313        C  0.48428574  0.38206113  0.08439456    -0.00100
C314        C  0.50075934  0.41516791  0.07176593    -0.08500
C315        C  0.48187724  0.42471384  0.04926427     0.61800
H316        H  0.04671795  0.46591471  0.07135388     0.12500
H317        H  0.49038180  0.34738682  0.11236044     0.12500
C318        C  0.05685801  0.38533614  0.13089318     0.62100
F319        F  0.50370427  0.45638435  0.03673245    -0.23100
F320        F  0.45488613  0.42650462  0.06207818    -0.20400
F321        F  0.46865886  0.39980990  0.02724422    -0.20100
F322        F  0.06090599  0.40034569  0.15827506    -0.20200
F323        F  0.08900899  0.39435824  0.11975540    -0.20500
F324        F  0.03880864  0.34974009  0.13413987    -0.23200
C325        C  0.45469780  0.14596560  0.23929780    -0.06000
C326        C  0.48257448  0.16015499  0.21968587    -0.00100
C327        C  0.01641336  0.18148072  0.22997323    -0.08600
C328        C  0.02184308  0.18363718  0.26038813    -0.06000
C329        C  0.49446235  0.16341327  0.28056948    -0.00100
C330        C  0.45990970  0.14622291  0.26958907    -0.08500
C331        C  0.42867895  0.12564490  0.28887829     0.61800
H332        H  0.42852640  0.13162083  0.23056787     0.12500
H333        H  0.04804430  0.19817125  0.26904069     0.12500
C334        C  0.04751588  0.20056186  0.21024613     0.62100
F335        F  0.39765506  0.11234511  0.27344573    -0.23100
F336        F  0.42822898  0.14673710  0.31097133    -0.20400
F337        F  0.43021879  0.09803868  0.30068390    -0.20100
F338        F  0.04108414  0.21966515  0.19010248    -0.20200
F339        F  0.05413954  0.17715372  0.19589190    -0.20500
F340        F  0.07717730  0.22332637  0.22588689    -0.23200
C341        C  0.01571129  0.16317461  0.02120650    -0.06000
C342        C  0.48307468  0.13756741  0.02911590    -0.00100
C343        C  0.45941238  0.11839176  0.00562023    -0.08600
C344        C  0.47025729  0.12417041  0.47632633    -0.06000
C345        C  0.50449389  0.14863565  0.46955844    -0.00100
C346        C  0.02744449  0.16844364  0.49224180    -0.08500
C347        C  0.06430591  0.19700887  0.48634240     0.61800
H348        H  0.03298992  0.17901607  0.03873257     0.12500
H349        H  0.45286106  0.10986647  0.45831838     0.12500
C350        C  0.42180152  0.09063651  0.01052960     0.62100
F351        F  0.08092192  0.21581039  0.51143621    -0.23100
F352        F  0.06397369  0.21972417  0.46615649    -0.20400
F353        F  0.08338870  0.18278817  0.47564976    -0.20100
F354        F  0.40492088  0.10455165  0.02582589    -0.20200
F355        F  0.42056474  0.06346234  0.02584843    -0.20500
F356        F  0.40368634  0.07706541  0.98450500    -0.23200
C357        C  0.44496667  0.26501986  0.10516777    -0.06000
C358        C  0.42979940  0.26680037  0.13158252    -0.00100
C359        C  0.42244587  0.24146647  0.15298383    -0.08600
C360        C  0.42829747  0.21392630  0.14642724    -0.06000
C361        C  0.44072608  0.21068156  0.11906733    -0.00100
C362        C  0.45069597  0.23738415  0.09859656    -0.08500
C363        C  0.46734855  0.23657756  0.07005168     0.61800
H364        H  0.45013174  0.28423605  0.08881178     0.12500
H365        H  0.42275126  0.19454506  0.16273020     0.12500
C366        C  0.40811452  0.24213070  0.18276652     0.62100
F367        F  0.47576038  0.26534549  0.05328480    -0.23100
F368        F  0.44478013  0.20735037  0.05396434    -0.20400
F369        F  0.99586056  0.23448803  0.07539200    -0.20100
F370        F  0.37562693  0.21323013  0.18553295    -0.20200
F371        F  0.40541358  0.27131014  0.18740009    -0.20500
F372        F  0.42985607  0.24158015  0.20422973    -0.23200
C373        C  0.41577027  0.45520585  0.10600669    -0.06000
C374        C  0.38108214  0.42997056  0.11041744    -0.00100
C375        C  0.35501523  0.43937605  0.10745815    -0.08600
C376        C  0.36535006  0.47473273  0.10428018    -0.06000
C377        C  0.40037230  0.50009498  0.10171554    -0.00100
C378        C  0.42549501  0.48958868  0.09978967    -0.08500
C379        C  0.46317775  0.01382927  0.09079666     0.61800
H380        H  0.43549067  0.44781159  0.10663340     0.12500
H381        H  0.34636154  0.48304101  0.10534965     0.12500
C382        C  0.31663274  0.41267370  0.10843653     0.62100
F383        F  0.47144059  0.99884910  0.06799183    -0.23100
F384        F  0.48509420  0.01906774  0.11425116    -0.20400
F385        F  0.46875863  0.04556573  0.08136314    -0.20100
F386        F  0.30940495  0.39339239  0.13351671    -0.20200
F387        F  0.30745860  0.39091582  0.08425154    -0.20500
F388        F  0.29621090  0.42792978  0.10819989    -0.23200
C389        C  0.28453828  0.07468508  0.16426325    -0.06000
C390        C  0.26170056  0.03894136  0.16136905    -0.00100
C391        C  0.27546735  0.01644501  0.15915641    -0.08600
C392        C  0.31176183  0.03096015  0.15749710    -0.06000
C393        C  0.33436913  0.06697163  0.15744324    -0.00100
C394        C  0.32064366  0.08923346  0.16211363    -0.08500
C395        C  0.34365897  0.12830024  0.16435863     0.61800
H396        H  0.27369632  0.09152402  0.16633956     0.12500
H397        H  0.32254836  0.01422252  0.15422323     0.12500
C398        C  0.25114265  0.47679030  0.15818089     0.62100
F399        F  0.32577796  0.14381581  0.17518448    -0.23100
F400        F  0.35576951  0.14176678  0.13704817    -0.20400
F401        F  0.37135348  0.13667976  0.18308712    -0.20100
F402        F  0.23304576  0.46672136  0.13190110    -0.20200
F403        F  0.22796939  0.46637416  0.18097869    -0.20500
F404        F  0.26990590  0.45988374  0.16068496    -0.23200
C405        C  0.06791255  0.06624993  0.16801978    -0.06000
C406        C  0.09391251  0.07961852  0.14706798    -0.00100
C407        C  0.09494071  0.10365207  0.12658310    -0.08600
C408        C  0.06852880  0.11206726  0.12671592    -0.06000
C409        C  0.04101807  0.09732773  0.14658714    -0.00100
C410        C  0.04141103  0.07478586  0.16847802    -0.08500
C411        C  0.51408577  0.05835777  0.19201147     0.61800
H412        H  0.06784324  0.04786747  0.18335661     0.12500
H413        H  0.06890627  0.12984265  0.11059166     0.12500
C414        C  0.12373623  0.12007900  0.10438321     0.62100
F415        F  0.48196057  0.03805389  0.17878763    -0.23100
F416        F  0.51385728  0.08401087  0.20899825    -0.20400
F417        F  0.51988132  0.03738592  0.21056754    -0.20100
F418        F  0.12195928  0.09498666  0.08539816    -0.20200
F419        F  0.15549051  0.13609694  0.11877668    -0.20500
F420        F  0.12151902  0.14481531  0.08795989    -0.23200
O421        O  0.38301028  0.10284713  0.63105428    -0.85600
O422        O  0.42793142  0.15531982  0.59755229    -0.82600
C423        C  0.44615186  0.18058461  0.61507279     0.97900
O424        O  0.47036797  0.18154784  0.62988459    -0.82600
O425        O  0.49689986  0.15666964  0.66903917    -0.85300
C426        C  0.47418646  0.14626346  0.68892091     1.02400
O427        O  0.44441914  0.12088253  0.68370442    -0.78000
O428        O  0.38740083  0.06502262  0.65733892    -0.78200
C429        C  0.37026866  0.07912143  0.64932170     1.02400
O430        O  0.39661351  0.05217575  0.60089279    -0.85600
O431        O  0.44369667  0.10598114  0.56811101    -0.82600
C432        C  0.47151650  0.13202100  0.56081077     0.97900
O433        O  0.49013744  0.15431414  0.58036928    -0.82600
O434        O  0.01223357  0.12287096  0.62113420    -0.85300
C435        C  0.01246278  0.10554834  0.64276972     1.02400
O436        O  0.48903586  0.09650418  0.66215894    -0.78100
O437        O  0.43455285  0.04875377  0.62979771    -0.78200
C438        C  0.41121150  0.03568231  0.61043160     1.02400
Cr439      Cr  0.41523235  0.10472285  0.60112562     1.93700
Cr440      Cr  0.48955858  0.15103805  0.62501500     1.93200
Cr441      Cr  0.43946520  0.08504010  0.65622881     1.39100
O442        O  0.44811338  0.11353170  0.62702738    -1.23300
O443        O  0.38292978  0.27136875  0.61730252    -0.85600
O444        O  0.32649188  0.25777799  0.58578132    -0.82600
C445        C  0.30525833  0.24898009  0.60670018     0.97900
O446        O  0.30657197  0.27184712  0.62376975    -0.82600
O447        O  0.33330311  0.33279001  0.65622529    -0.85300
C448        C  0.35136030  0.32998970  0.67656492     1.02400
O449        O  0.37751993  0.32769986  0.67010571    -0.78000
O450        O  0.42517626  0.31819277  0.63768293    -0.78200
C451        C  0.41117367  0.28608002  0.63092620     1.02400
O452        O  0.42879570  0.32941216  0.58165538    -0.85600
O453        O  0.36869721  0.32007752  0.55333830    -0.82600
C454        C  0.33831743  0.31377239  0.54835997     0.97900
O455        O  0.31805419  0.30859750  0.56960121    -0.82600
O456        O  0.35037516  0.36940206  0.60142092    -0.85300
C457        C  0.37387742  0.39394009  0.61617025     1.02400
O458        O  0.39126101  0.38804622  0.63527773    -0.78100
O459        O  0.43324071  0.37562135  0.60203491    -0.78200
C460        C  0.44664460  0.36157195  0.58769978     1.02400
Cr461      Cr  0.37637804  0.29667100  0.58595657     1.93700
Cr462      Cr  0.32974184  0.32078079  0.61276531     1.93200
Cr463      Cr  0.40433263  0.35034768  0.63499638     1.39100
O464        O  0.37011517  0.32265531  0.61135081    -1.23300
O465        O  0.21081690  0.04044424  0.67515880    -0.85600
O466        O  0.21169936  0.08968128  0.64112239    -0.82600
C467        C  0.20554738  0.10344449  0.61992862     0.97900
O468        O  0.17751598  0.08689849  0.60547100    -0.82600
O469        O  0.17769041  0.03144079  0.58020893    -0.85300
C470        C  0.17067588  0.00138172  0.57339772     1.02400
O471        O  0.15895064  0.47759190  0.59310460    -0.78000
O472        O  0.20613720  0.00597951  0.63872754    -0.78200
C473        C  0.22401104  0.02699209  0.65887726     1.02400
O474        O  0.14037021  0.02056617  0.69149442    -0.85600
O475        O  0.14339113  0.07419701  0.65909440    -0.82600
C476        C  0.11606216  0.06382523  0.64355415     0.97900
O477        O  0.10810770  0.04126688  0.62383054    -0.82600
O478        O  0.10550902  0.48617193  0.59403590    -0.85300
C479        C  0.08958522  0.45992397  0.61031696     1.02400
O480        O  0.10408244  0.45813186  0.63363825    -0.78100
O481        O  0.15217223  0.47936419  0.68126368    -0.78200
C482        C  0.14378178  0.49520720  0.69973833     1.02400
Cr483      Cr  0.17496040  0.05385975  0.66466099     1.93700
Cr484      Cr  0.14321136  0.03565829  0.60314363     1.93200
Cr485      Cr  0.15555229  0.48293848  0.63687855     1.39100
O486        O  0.15737312  0.02434472  0.63503880    -1.23300
O487        O  0.26724053  0.32252813  0.82668999    -0.85600
O488        O  0.26765818  0.37137957  0.86273419    -0.82600
C489        C  0.27453392  0.39217069  0.88380926     0.97900
O490        O  0.30406141  0.40570391  0.89597302    -0.82600
O491        O  0.30336759  0.35025743  0.92279959    -0.85300
C492        C  0.30837970  0.32556729  0.92814178     1.02400
O493        O  0.32015681  0.31443569  0.90819990    -0.78000
O494        O  0.27305391  0.29312116  0.86223442    -0.78200
C495        C  0.25493065  0.29546595  0.84209262     1.02400
O496        O  0.33642898  0.37251514  0.80911404    -0.85600
O497        O  0.33512474  0.42343314  0.84225844    -0.82600
C498        C  0.36446528  0.43947857  0.85509933     0.97900
O499        O  0.37221691  0.42570542  0.87534404    -0.82600
O500        O  0.37422814  0.37629419  0.90737390    -0.85300
C501        C  0.39028403  0.36672814  0.89055708     1.02400
O502        O  0.37557697  0.34910679  0.86766422    -0.78100
O503        O  0.32750060  0.32130607  0.82030545    -0.78200
C504        C  0.33536318  0.34484799  0.80158345     1.02400
Cr505      Cr  0.30309186  0.37174077  0.83735924     1.93700
Cr506      Cr  0.33709667  0.38738610  0.89796139     1.93200
Cr507      Cr  0.32400238  0.32224108  0.86459110     1.39100
O508        O  0.32151297  0.36050693  0.86646494    -1.23300
O509        O  0.09199717  0.37907184  0.89350513    -0.85600
O510        O  0.14955859  0.42333069  0.92159073    -0.82600
C511        C  0.17054979  0.43095939  0.90058428     0.97900
O512        O  0.17120184  0.45027504  0.88028945    -0.82600
O513        O  0.14763198  0.48289323  0.84211167    -0.85300
C514        C  0.12901777  0.45963310  0.82322583     1.02400
O515        O  0.10318516  0.43217858  0.83165881    -0.78000
O516        O  0.05221671  0.38165371  0.86761004    -0.78200
C517        C  0.06424502  0.36399826  0.87953846     1.02400
O518        O  0.04967177  0.40134554  0.92255844    -0.85600
O519        O  0.11142790  0.45378847  0.94745454    -0.82600
C520        C  0.14303524  0.47541065  0.95128573     0.97900
O521        O  0.16323597  0.48563972  0.92960669    -0.82600
O522        O  0.13199965  0.01114838  0.89238840    -0.85300
C523        C  0.10913859  0.01086114  0.87590609     1.02400
O524        O  0.09270557  0.48636010  0.85815493    -0.78100
O525        O  0.04733540  0.43888456  0.89409080    -0.78200
C526        C  0.03318172  0.41526647  0.91221970     1.02400
Cr527      Cr  0.10106659  0.41648144  0.91960234     1.93700
Cr528      Cr  0.15106236  0.48030039  0.88627367     1.93200
Cr529      Cr  0.07625840  0.43519112  0.86430556     1.39100
O530        O  0.10940821  0.44394186  0.88995121    -1.23300
O531        O  0.09738077  0.20967091  0.86274479    -0.85600
O532        O  0.05418010  0.21811843  0.89868707    -0.82600
C533        C  0.03446880  0.22382627  0.88210357     0.97900
O534        O  0.01017854  0.19971503  0.86795412    -0.82600
O535        O  0.48333124  0.14630375  0.83097203    -0.85300
C536        C  0.00401070  0.15818414  0.80947876     1.02400
O537        O  0.03380981  0.16211427  0.81302111    -0.78000
O538        O  0.09249730  0.16579827  0.83790900    -0.78200
C539        C  0.10976766  0.19751752  0.84493840     1.02400
O540        O  0.08770761  0.14816268  0.89378802    -0.85600
O541        O  0.04233824  0.15630853  0.92975901    -0.82600
C542        C  0.51507024  0.15448365  0.93798655     0.97900
O543        O  0.49531672  0.15653688  0.91886555    -0.82600
O544        O  0.47115627  0.10070183  0.88009857    -0.85300
C545        C  0.46934243  0.08195701  0.85872878     1.02400
O546        O  0.49186511  0.09436487  0.83888140    -0.78100
O547        O  0.04716116  0.10405301  0.86830023    -0.78200
C548        C  0.07367328  0.11683199  0.88442516     1.02400
Cr549      Cr  0.06791240  0.18110478  0.89467941     1.93700
Cr550      Cr  0.49323625  0.15099831  0.87454351     1.93200
Cr551      Cr  0.04060267  0.13339143  0.84117985     1.39100
O552        O  0.03353562  0.15498377  0.87038019    -1.23300
C553        C  0.04182373  0.30761561  0.85362102    -0.06000
C554        C  0.04686442  0.32578327  0.87994504    -0.00100
C555        C  0.04417172  0.30873750  0.90693761    -0.08600
C556        C  0.04113407  0.27597376  0.90637111    -0.06000
C557        C  0.03804768  0.25854147  0.88017589    -0.00100
C558        C  0.03619067  0.27353172  0.85325269    -0.08500
C559        C  0.02882476  0.25410311  0.82422914     0.61800
H560        H  0.04375543  0.32083401  0.83336897     0.12500
H561        H  0.04074241  0.26335955  0.92661693     0.12500
C562        C  0.04390475  0.32447476  0.93656506     0.62100
F563        F  0.03315445  0.27520338  0.80074353    -0.23100
F564        F  0.99492493  0.22703319  0.82348315    -0.20400
F565        F  0.05090916  0.24114300  0.82066935    -0.20100
F566        F  0.01934024  0.33457843  0.93615282    -0.20200
F567        F  0.07602708  0.35256460  0.94343615    -0.18700
F568        F  0.03531312  0.30088210  0.95888722    -0.23200
C569        C  0.08692042  0.04269048  0.90431872    -0.06000
C570        C  0.10259435  0.04006899  0.87862626    -0.00100
C571        C  0.11397939  0.06648486  0.85767300    -0.08600
C572        C  0.10796963  0.09415473  0.86259900    -0.06000
C573        C  0.09009435  0.09551117  0.88727730    -0.00100
C574        C  0.07940736  0.06951747  0.90854632    -0.08500
C575        C  0.05880096  0.06950458  0.93474287     0.61800
H576        H  0.07937671  0.02274866  0.92051436     0.12500
H577        H  0.11497233  0.11374645  0.84609510     0.12500
C578        C  0.13203999  0.06514702  0.83020564     0.62100
F579        F  0.05308218  0.04354719  0.95409457    -0.23100
F580        F  0.02696170  0.06447323  0.92549532    -0.20400
F581        F  0.07671466  0.10095518  0.94943974    -0.20100
F582        F  0.10987134  0.53523875  0.81401058    -0.20200
F583        F  0.16140841  0.06380581  0.83778349    -0.20500
F584        F  0.14202284  0.09393402  0.81301379    -0.23200
C585        C  0.38093017  0.50031318  0.85862116    -0.06000
C586        C  0.38933241  0.47572693  0.84876568    -0.00100
C587        C  0.42362101  0.48641649  0.84011751    -0.08600
C588        C  0.44903511  0.02127736  0.84519068    -0.06000
C589        C  0.44082433  0.04571519  0.85607577    -0.00100
C590        C  0.40590283  0.03516601  0.86287975    -0.08500
C591        C  0.39518786  0.06035209  0.87453298     0.61800
H592        H  0.35450719  0.49138627  0.86504044     0.12500
H593        H  0.47564128  0.02956789  0.83952163     0.12500
C594        C  0.43498447  0.46208833  0.82772428     0.62100
F595        F  0.35950462  0.04516367  0.87625556    -0.23100
F596        F  0.40688501  0.08849509  0.85636091    -0.20400
F597        F  0.40897920  0.07161757  0.90230764    -0.20100
F598        F  0.45140363  0.47478642  0.80140900    -0.20200
F599        F  0.40767872  0.42894280  0.82255925    -0.20500
F600        F  0.45810024  0.46039180  0.84702164    -0.23200
C601        C  0.16987496  0.20883606  0.84387547    -0.06000
C602        C  0.14629258  0.21961763  0.83621406    -0.00100
C603        C  0.15891747  0.25343386  0.82552611    -0.08600
C604        C  0.19482495  0.27673232  0.82613112    -0.06000
C605        C  0.21839871  0.26729366  0.83711934    -0.00100
C606        C  0.20594444  0.23210467  0.84445170    -0.08500
C607        C  0.23011621  0.21898420  0.85347943     0.61800
H608        H  0.15973813  0.18267995  0.85163783     0.12500
H609        H  0.20446324  0.30327632  0.81970697     0.12500
C610        C  0.13450516  0.26507391  0.81404922     0.62100
F611        F  0.21329172  0.18315402  0.85302445    -0.23100
F612        F  0.24258025  0.23029226  0.88157730    -0.20400
F613        F  0.25757714  0.23085633  0.83439476    -0.20100
F614        F  0.11659464  0.26876073  0.83694597    -0.20200
F615        F  0.11130644  0.24078739  0.79420457    -0.20500
F616        F  0.15214562  0.29651234  0.79999566    -0.23200
C617        C  0.22767496  0.43822104  0.91367858    -0.06000
C618        C  0.19522760  0.41822551  0.90003704    -0.00100
C619        C  0.18786350  0.38801705  0.88422031    -0.08600
C620        C  0.21426051  0.38010828  0.88070160    -0.06000
C621        C  0.24775245  0.40109082  0.89266866    -0.00100
C622        C  0.25417560  0.42992287  0.91080231    -0.08500
C623        C  0.28843908  0.45222422  0.92684271     0.61800
H624        H  0.23227142  0.46093771  0.92607904     0.12500
H625        H  0.20872321  0.35719227  0.86817934     0.12500
C626        C  0.15201494  0.36366998  0.87169418     0.62100
F627        F  0.28800397  0.47778504  0.94386304    -0.23100
F628        F  0.31486035  0.46830403  0.90701993    -0.20400
F629        F  0.29531534  0.43190654  0.94518916    -0.20100
F630        F  0.14138289  0.38143627  0.85374346    -0.20200
F631        F  0.12922215  0.34910845  0.89448431    -0.20500
F632        F  0.15108710  0.33704220  0.85533450    -0.23200
C633        C  0.44760858  0.41103599  0.90937864    -0.06000
C634        C  0.42643968  0.37707771  0.89869905    -0.00100
C635        C  0.43953517  0.35402787  0.89831302    -0.08600
C636        C  0.47435905  0.36669836  0.90675731    -0.06000
C637        C  0.99555950  0.40051681  0.91604111    -0.00100
C638        C  0.48200954  0.42338845  0.91836906    -0.08500
C639        C  0.00160304  0.45920184  0.93105434     0.61800
H640        H  0.43728668  0.42844318  0.91028849     0.12500
H641        H  0.48566184  0.35044308  0.90364908     0.12500
C642        C  0.41718218  0.31646417  0.88876587     0.62100
F643        F  0.98274794  0.46415607  0.95249673    -0.23100
F644        F  0.00732555  0.48187681  0.90853310    -0.20400
F645        F  0.03312425  0.46683493  0.94335452    -0.20100
F646        F  0.40902425  0.31462358  0.85935042    -0.20200
F647        F  0.38698491  0.30100525  0.90472556    -0.20500
F648        F  0.43399211  0.29786208  0.89309390    -0.23200
C649        C  0.15124604  0.00184412  0.78292778    -0.06000
C650        C  0.13474718  0.46696569  0.79119782    -0.00100
C651        C  0.12149377  0.44105989  0.76866776    -0.08600
C652        C  0.12529658  0.45140427  0.73915092    -0.06000
C653        C  0.14050140  0.48632782  0.73137826    -0.00100
C654        C  0.15379163  0.01225042  0.75372022    -0.08500
C655        C  0.17124024  0.05084857  0.74750142     0.61800
H656        H  0.16127239  0.02137784  0.80013356     0.12500
H657        H  0.11535284  0.43205668  0.72174750     0.12500
C658        C  0.10338107  0.40266442  0.77532322     0.62100
F659        F  0.18555671  0.07098121  0.77248794    -0.23100
F660        F  0.14720221  0.05872057  0.73622162    -0.20400
F661        F  0.19776056  0.06007501  0.72788507    -0.20100
F662        F  0.07125718  0.39227865  0.78721590    -0.20200
F663        F  0.12326484  0.39611054  0.79472858    -0.20500
F664        F  0.09820471  0.38277744  0.75037996    -0.23200
C665        C  0.18504265  0.02149749  0.52248349    -0.06000
C666        C  0.17215747  0.49243027  0.54215871    -0.00100
C667        C  0.15315385  0.45830314  0.53019827    -0.08600
C668        C  0.14546641  0.45457616  0.99999804    -0.06000
C669        C  0.15653548  0.48304555  0.98153047    -0.00100
C670        C  0.17680047  0.01742832  0.99223362    -0.08500
C671        C  0.18888384  0.04872507  0.97284596     0.61800
H672        H  0.20025898  0.04746738  0.53142800     0.12500
H673        H  0.12980754  0.42885250  0.99058773     0.12500
C674        C  0.13855165  0.42598218  0.54871913     0.62100
F675        F  0.20689617  0.07949318  0.98855884    -0.23100
F676        F  0.16370634  0.54837638  0.95959921    -0.20400
F677        F  0.21056637  0.04835454  0.95160208    -0.20100
F678        F  0.11166753  0.42335375  0.56537744    -0.20200
F679        F  0.16431762  0.42734742  0.56668360    -0.20500
F680        F  0.12559081  0.39611793  0.53173614    -0.23200
C681        C  0.30121750  0.32022586  0.51105469    -0.06000
C682        C  0.32610436  0.31075150  0.51763072    -0.00100
C683        C  0.33855907  0.29828513  0.49473962    -0.08600
C684        C  0.32790555  0.29982620  0.96589637    -0.06000
C685        C  0.30733179  0.31443224  0.95887961    -0.00100
C686        C  0.29150057  0.32287271  0.98190476    -0.08500
C687        C  0.26509017  0.33414934  0.97623631     0.61800
H688        H  0.29066251  0.32817067  0.52877988     0.12500
H689        H  0.33897590  0.29224379  0.94836690     0.12500
C690        C  0.36178011  0.28291301  0.50028888     0.62100
F691        F  0.24420357  0.32684028  0.50101539    -0.23100
F692        F  0.24246500  0.31422598  0.95396107    -0.20400
F693        F  0.28183835  0.36863843  0.96866419    -0.20100
F694        F  0.34808057  0.25865958  0.52220078    -0.20200
F695        F  0.39481816  0.30876685  0.50823947    -0.20500
F696        F  0.36102961  0.26360933  0.97610560    -0.23200
C697        C  0.32745595  0.35473056  0.74965916    -0.06000
C698        C  0.33915715  0.33912286  0.76986077    -0.00100
C699        C  0.35311507  0.31887420  0.75911034    -0.08600
C700        C  0.35508796  0.31541189  0.72853104    -0.06000
C701        C  0.34390746  0.33158301  0.70829448    -0.00100
C702        C  0.32973502  0.35165851  0.71920784    -0.08500
C703        C  0.31836601  0.37117486  0.69918112     0.61800
H704        H  0.31630726  0.36967041  0.75804469     0.12500
H705        H  0.36595021  0.30021800  0.72011721     0.12500
C706        C  0.36719736  0.30216284  0.77960990     0.62100
F707        F  0.30757248  0.39081598  0.71459205    -0.23100
F708        F  0.29088406  0.34797760  0.68168265    -0.20400
F709        F  0.34585846  0.39348043  0.68204156    -0.20100
F710        F  0.34044059  0.27648365  0.79535853    -0.20200
F711        F  0.39134775  0.32692323  0.79863905    -0.20500
F712        F  0.38330776  0.28720253  0.76459426    -0.23200
C713        C  0.26894381  0.18969247  0.58581905    -0.06000
C714        C  0.27844280  0.21196621  0.61044424    -0.00100
C715        C  0.26317375  0.19805304  0.63790475    -0.08600
C716        C  0.23907564  0.16252949  0.63938981    -0.06000
C717        C  0.22983597  0.14049548  0.61488411    -0.00100
C718        C  0.24487839  0.15400665  0.58758791    -0.08500
C719        C  0.23674844  0.13064468  0.56091483     0.61800
H720        H  0.28070576  0.20044781  0.56502850     0.12500
H721        H  0.22700235  0.15139314  0.66001786     0.12500
C722        C  0.27256591  0.21980209  0.66590767     0.62100
F723        F  0.25612249  0.14863928  0.53704062    -0.23100
F724        F  0.20206591  0.11591370  0.55335379    -0.20400
F725        F  0.24414615  0.10474170  0.56704506    -0.20100
F726        F  0.26153368  0.24365094  0.66386114    -0.20200
F727        F  0.30806851  0.23678955  0.67065227    -0.20500
F728        F  0.25705675  0.19980813  0.69019652    -0.23200
C729        C  0.03574958  0.43954054  0.58020320    -0.06000
C730        C  0.05416834  0.43144491  0.60091116    -0.00100
C731        C  0.03858732  0.39670227  0.61091709    -0.08600
C732        C  0.50410346  0.37263934  0.60333714    -0.06000
C733        C  0.48477499  0.38174133  0.58486232    -0.00100
C734        C  0.50122883  0.41473566  0.57202500    -0.08500
C735        C  0.48227441  0.42414848  0.54949318     0.61800
H736        H  0.04788847  0.46543928  0.57156992     0.12500
H737        H  0.49097365  0.34725304  0.61300176     0.12500
C738        C  0.05738357  0.38457750  0.63122729     0.62100
F739        F  0.50412561  0.45561444  0.53666047    -0.23100
F740        F  0.45550519  0.42628389  0.56236955    -0.20400
F741        F  0.46874532  0.39898020  0.52769356    -0.20100
F742        F  0.06197783  0.39998552  0.65849765    -0.20200
F743        F  0.08926702  0.39298403  0.61984757    -0.20500
F744        F  0.03892050  0.34903989  0.63481350    -0.23200
C745        C  0.45479634  0.14561964  0.73933396    -0.06000
C746        C  0.48249997  0.15965736  0.71957070    -0.00100
C747        C  0.01627430  0.18124892  0.73004085    -0.08600
C748        C  0.02151899  0.18326825  0.76046986    -0.06000
C749        C  0.49485027  0.16305187  0.78040918    -0.00100
C750        C  0.46022509  0.14595158  0.76958918    -0.08500
C751        C  0.42910321  0.12552044  0.78901569     0.61800
H752        H  0.42855606  0.13136860  0.73074054     0.12500
H753        H  0.04766546  0.19776813  0.76922972     0.12500
C754        C  0.04750954  0.20029113  0.71044114     0.62100
F755        F  0.39799238  0.11212640  0.77370504    -0.23100
F756        F  0.42878476  0.14676645  0.81103072    -0.20400
F757        F  0.43070745  0.09798531  0.80090200    -0.20100
F758        F  0.04133530  0.21959847  0.69032606    -0.20200
F759        F  0.05403271  0.17683587  0.69604879    -0.20500
F760        F  0.07714628  0.22285194  0.72621142    -0.23200
C761        C  0.01557468  0.16216488  0.52138452    -0.06000
C762        C  0.48181884  0.13656048  0.52899842    -0.00100
C763        C  0.45835349  0.11733578  0.50541148    -0.08600
C764        C  0.47105333  0.12532564  0.97648462    -0.06000
C765        C  0.50527439  0.14963388  0.96958948    -0.00100
C766        C  0.02741537  0.16951351  0.99200716    -0.08500
C767        C  0.06389156  0.19873858  0.98589143     0.61800
H768        H  0.03289665  0.17776900  0.53897834     0.12500
H769        H  0.45349788  0.11111012  0.95853782     0.12500
C770        C  0.42064830  0.08975228  0.51017075     0.62100
F771        F  0.08039026  0.21783283  0.01089894    -0.23100
F772        F  0.06262970  0.22100771  0.96574019    -0.20400
F773        F  0.08363030  0.18534288  0.97502876    -0.20100
F774        F  0.40380333  0.10389948  0.52519620    -0.20200
F775        F  0.41909327  0.06256195  0.52569421    -0.20500
F776        F  0.40271880  0.07616278  0.48407286    -0.23200
C777        C  0.44437372  0.26430475  0.60574312    -0.06000
C778        C  0.42954466  0.26631764  0.63226926    -0.00100
C779        C  0.42192256  0.24084297  0.65360241    -0.08600
C780        C  0.42742177  0.21309539  0.64694511    -0.06000
C781        C  0.43953782  0.20968197  0.61948086    -0.00100
C782        C  0.44941617  0.23629838  0.59895244    -0.08500
C783        C  0.46503616  0.23488416  0.57001314     0.61800
H784        H  0.44962861  0.28356900  0.58941160     0.12500
H785        H  0.42176011  0.19364248  0.66322126     0.12500
C786        C  0.40749429  0.24149751  0.68334517     0.62100
F787        F  0.47322219  0.26349157  0.55310410    -0.23100
F788        F  0.44170382  0.20556365  0.55440263    -0.20400
F789        F  0.99455222  0.23373323  0.57413679    -0.20100
F790        F  0.37469041  0.21297327  0.68579625    -0.20200
F791        F  0.40544725  0.27101955  0.68815124    -0.20500
F792        F  0.42875065  0.24020566  0.70488713    -0.23200
C793        C  0.41654870  0.45504362  0.60619041    -0.06000
C794        C  0.38177798  0.42993535  0.61041179    -0.00100
C795        C  0.35588680  0.43955898  0.60739887    -0.08600
C796        C  0.36644516  0.47497395  0.60424508    -0.06000
C797        C  0.40154647  0.50021743  0.60187419    -0.00100
C798        C  0.42654583  0.48952304  0.60010779    -0.08500
C799        C  0.46255168  0.01312049  0.59131035     0.61800
H800        H  0.43614697  0.44748787  0.60692489     0.12500
H801        H  0.34755638  0.48341862  0.60520827     0.12500
C802        C  0.31745835  0.41302157  0.60835224     0.62100
F803        F  0.47104136  0.99828206  0.56854813    -0.23100
F804        F  0.48422474  0.01819025  0.61491209    -0.20400
F805        F  0.46824477  0.04492193  0.58195694    -0.20100
F806        F  0.31013100  0.39364709  0.63338320    -0.20200
F807        F  0.30817765  0.39132232  0.58412036    -0.20500
F808        F  0.29720720  0.42846448  0.60820626    -0.23200
C809        C  0.28444975  0.07370832  0.66640527    -0.06000
C810        C  0.26138050  0.03817133  0.66222152    -0.00100
C811        C  0.27484137  0.01549405  0.65894548    -0.08600
C812        C  0.31109116  0.02980047  0.65738590    -0.06000
C813        C  0.33389156  0.06574654  0.65844787    -0.00100
C814        C  0.32051383  0.08802679  0.66434883    -0.08500
C815        C  0.34387382  0.12693519  0.66766127     0.61800
H816        H  0.27388151  0.09069373  0.66928112     0.12500
H817        H  0.32170976  0.01307084  0.65322287     0.12500
C818        C  0.25260724  0.47641408  0.65869097     0.62100
F819        F  0.32643942  0.14220305  0.67991101    -0.23100
F820        F  0.35556549  0.14143127  0.64057374    -0.20400
F821        F  0.37186054  0.13434014  0.68571571    -0.20100
F822        F  0.23393395  0.46603470  0.63270200    -0.20200
F823        F  0.22996448  0.46604792  0.68187041    -0.20500
F824        F  0.27161286  0.45971643  0.66078739    -0.23200
C825        C  0.06709808  0.06505204  0.66724181    -0.06000
C826        C  0.09359903  0.07912008  0.64675886    -0.00100
C827        C  0.09492397  0.10357298  0.62658700    -0.08600
C828        C  0.06851452  0.11200335  0.62674439    -0.06000
C829        C  0.04065345  0.09675670  0.64625518    -0.00100
C830        C  0.04051397  0.07346008  0.66763520    -0.08500
C831        C  0.51319634  0.05743028  0.69153242     0.61800
H832        H  0.06674296  0.04625693  0.68226085     0.12500
H833        H  0.06918927  0.13022496  0.61094342     0.12500
C834        C  0.12399961  0.12038011  0.60466639     0.62100
F835        F  0.48117946  0.03717514  0.67811831    -0.23100
F836        F  0.51272192  0.08281910  0.70871447    -0.20400
F837        F  0.51895627  0.03631351  0.70993918    -0.20100
F838        F  0.12255177  0.09557115  0.58551948    -0.20200
F839        F  0.15557985  0.13629903  0.61933718    -0.20500
F840        F  0.12188026  0.14526150  0.58837891    -0.23200
O841        O  0.38292931  0.60332140  0.13066136    -0.85600
O842        O  0.42810055  0.65589236  0.09737508    -0.82600
C843        C  0.44627145  0.68114350  0.11493963     0.97900
O844        O  0.47044502  0.68208641  0.12980115    -0.82600
O845        O  0.49680629  0.65711577  0.16907367    -0.85300
C846        C  0.47404434  0.64674993  0.18891850     1.02400
O847        O  0.44425300  0.62143888  0.18364128    -0.78000
O848        O  0.38716873  0.56559438  0.15718457    -0.78200
C849        C  0.37003166  0.57963018  0.14894344     1.02400
O850        O  0.39674637  0.55267834  0.10071657    -0.85600
O851        O  0.44398579  0.60646486  0.06811072    -0.82600
C852        C  0.47191208  0.63237496  0.06085401     0.97900
O853        O  0.49036723  0.65480380  0.08038111    -0.82600
O854        O  0.01236325  0.62359902  0.12087993    -0.85300
C855        C  0.01254241  0.60618926  0.14248204     1.02400
O856        O  0.48891990  0.59696888  0.16218385    -0.78100
O857        O  0.43449793  0.54925302  0.12985075    -0.78200
C858        C  0.41130964  0.53619500  0.11036964     1.02400
Cr859      Cr  0.41535735  0.60524403  0.10094374     1.93700
Cr860      Cr  0.48959482  0.65153537  0.12502528     1.93200
Cr861      Cr  0.43932239  0.58556286  0.15620099     1.39100
O862        O  0.44810636  0.61405172  0.12697603    -1.23300
O863        O  0.38279700  0.77169582  0.11733750    -0.85600
O864        O  0.32646075  0.75801663  0.08558889    -0.82600
C865        C  0.30510987  0.74914564  0.10641474     0.97900
O866        O  0.30638893  0.77199122  0.12349775    -0.82600
O867        O  0.33295953  0.83289883  0.15612138    -0.85300
C868        C  0.35111308  0.83022149  0.17645438     1.02400
O869        O  0.37731636  0.82802609  0.16998088    -0.78000
O870        O  0.42501354  0.81857142  0.13766835    -0.78200
C871        C  0.41102140  0.78643771  0.13099027     1.02400
O872        O  0.42871335  0.82973449  0.08168416    -0.85600
O873        O  0.36866011  0.82025062  0.05317151    -0.82600
C874        C  0.33827041  0.81392971  0.04819981     0.97900
O875        O  0.31802206  0.80887843  0.06943001    -0.82600
O876        O  0.35006095  0.86962765  0.10134582    -0.85300
C877        C  0.37353685  0.89420043  0.11608515     1.02400
O878        O  0.39100251  0.88836355  0.13515180    -0.78100
O879        O  0.43301915  0.87594265  0.10193410    -0.78200
C880        C  0.44649545  0.86190753  0.08767957     1.02400
Cr881      Cr  0.37630789  0.79695020  0.08589608     1.93700
Cr882      Cr  0.32952937  0.82097777  0.11261302     1.93200
Cr883      Cr  0.40412039  0.85068379  0.13489653     1.39100
O884        O  0.36994557  0.82294246  0.11123321    -1.23300
O885        O  0.21032210  0.54050161  0.17525819    -0.85600
O886        O  0.21174204  0.58970149  0.14080181    -0.82600
C887        C  0.20572992  0.60345231  0.11951957     0.97900
O888        O  0.17766220  0.58702791  0.10509568    -0.82600
O889        O  0.17739531  0.53117201  0.08024349    -0.85300
C890        C  0.17033964  0.50104538  0.07364836     1.02400
O891        O  0.15808903  0.97844156  0.09260807    -0.78000
O892        O  0.20534587  0.50566381  0.13905151    -0.78200
C893        C  0.22340931  0.52692958  0.15899325     1.02400
O894        O  0.14005490  0.52140823  0.19151217    -0.85600
O895        O  0.14362205  0.57498743  0.15869526    -0.82600
C896        C  0.11632627  0.56475538  0.14314272     0.97900
O897        O  0.10819200  0.54208260  0.12347357    -0.82600
O898        O  0.10459573  0.98693757  0.09404194    -0.85300
C899        C  0.08882731  0.96058117  0.11023575     1.02400
O900        O  0.10352604  0.95871272  0.13341000    -0.78100
O901        O  0.15197284  0.97979185  0.18081252    -0.78200
C902        C  0.14346942  0.99541540  0.19940821     1.02400
Cr903      Cr  0.17480588  0.55426845  0.16450493     1.93700
Cr904      Cr  0.14305120  0.53586529  0.10297528     1.93200
Cr905      Cr  0.15503856  0.98361159  0.13642409     1.39100
O906        O  0.15695723  0.52454088  0.13502709    -1.23300
O907        O  0.26735500  0.82233733  0.32668090    -0.85600
O908        O  0.26749865  0.87104931  0.36276597    -0.82600
C909        C  0.27433249  0.89190799  0.38377708     0.97900
O910        O  0.30378285  0.90532246  0.39609206    -0.82600
O911        O  0.30325145  0.84988695  0.42282763    -0.85300
C912        C  0.30845012  0.82531727  0.42814898     1.02400
O913        O  0.32035757  0.81433066  0.40818852    -0.78000
O914        O  0.27332349  0.79294638  0.36214457    -0.78200
C915        C  0.25513747  0.79522340  0.34202396     1.02400
O916        O  0.33655312  0.87264966  0.30922217    -0.85600
O917        O  0.33500964  0.92327320  0.34249264    -0.82600
C918        C  0.36433576  0.93925304  0.35536749     0.97900
O919        O  0.37201556  0.92548022  0.37564354    -0.82600
O920        O  0.37429947  0.87622197  0.40753207    -0.85300
C921        C  0.39047527  0.86682176  0.39066718     1.02400
O922        O  0.37582199  0.84934695  0.36769646    -0.78100
O923        O  0.32779591  0.82147451  0.32025876    -0.78200
C924        C  0.33556544  0.84505737  0.30158863     1.02400
Cr925      Cr  0.30307343  0.87159570  0.33745094     1.93700
Cr926      Cr  0.33695855  0.88712622  0.39811858     1.93200
Cr927      Cr  0.32424373  0.82225369  0.36457074     1.39100
O928        O  0.32151976  0.86036817  0.36654570    -1.23300
O929        O  0.09201808  0.87932481  0.39325238    -0.85600
O930        O  0.14961205  0.92366019  0.42125843    -0.82600
C931        C  0.17055768  0.93123310  0.40021344     0.97900
O932        O  0.17121993  0.95057833  0.37994154    -0.82600
O933        O  0.14763321  0.98318961  0.34177935    -0.85300
C934        C  0.12902987  0.95992191  0.32289032     1.02400
O935        O  0.10319620  0.93246737  0.33132013    -0.78000
O936        O  0.05227677  0.88193313  0.36728847    -0.78200
C937        C  0.06427108  0.86427415  0.37927065     1.02400
O938        O  0.04970625  0.90159388  0.42220393    -0.85600
O939        O  0.11131609  0.95408568  0.44705153    -0.82600
C940        C  0.14288690  0.97574986  0.45092279     0.97900
O941        O  0.16317471  0.98590592  0.42929910    -0.82600
O942        O  0.13182542  0.51132523  0.39339923    -0.85300
C943        C  0.10902404  0.51118347  0.37693307     1.02400
O944        O  0.09270033  0.98661694  0.35784163    -0.78100
O945        O  0.04739924  0.93915510  0.39376371    -0.78200
C946        C  0.03321522  0.91548795  0.41183822     1.02400
Cr947      Cr  0.10108386  0.91676782  0.41927590     1.93700
Cr948      Cr  0.15105263  0.98057278  0.38595143     1.93200
Cr949      Cr  0.07627971  0.93545744  0.36397020     1.39100
O950        O  0.10942263  0.94419217  0.38960186    -1.23300
O951        O  0.09756318  0.70995089  0.36242260    -0.85600
O952        O  0.05457425  0.71870590  0.39848619    -0.82600
C953        C  0.03471329  0.72430793  0.38202442     0.97900
O954        O  0.01034037  0.70015801  0.36800054    -0.82600
O955        O  0.48308310  0.64654714  0.33104762    -0.85300
C956        C  0.00424160  0.65855743  0.30939259     1.02400
O957        O  0.03396930  0.66226686  0.31289934    -0.78000
O958        O  0.09253934  0.66576785  0.33799731    -0.78200
C959        C  0.10991221  0.69753455  0.34482820     1.02400
O960        O  0.08782389  0.64861987  0.39379385    -0.85600
O961        O  0.04273989  0.65700406  0.42962936    -0.82600
C962        C  0.51533961  0.65455696  0.43806407     0.97900
O963        O  0.49536302  0.65633065  0.41900423    -0.82600
O964        O  0.47157756  0.60077699  0.38003790    -0.85300
C965        C  0.46974662  0.58222171  0.35852524     1.02400
O966        O  0.49202795  0.59487976  0.33852857    -0.78100
O967        O  0.04698096  0.60434373  0.36867206    -0.78200
C968        C  0.07360308  0.61719265  0.38469296     1.02400
Cr969      Cr  0.06816980  0.68162647  0.39451549     1.93700
Cr970      Cr  0.49316235  0.65102340  0.37465697     1.93200
Cr971      Cr  0.04061706  0.63360111  0.34125884     1.39100
O972        O  0.03366665  0.65541294  0.37033184    -1.23300
C973        C  0.04182698  0.80788334  0.35342557    -0.06000
C974        C  0.04683959  0.82607711  0.37972807    -0.00100
C975        C  0.04413146  0.80907550  0.40675036    -0.08600
C976        C  0.04120061  0.77636937  0.40623655    -0.06000
C977        C  0.03821388  0.75895489  0.38006363    -0.00100
C978        C  0.03627640  0.77383933  0.35311671    -0.08500
C979        C  0.02891658  0.75432481  0.32414036     0.61800
H980        H  0.04374442  0.82105580  0.33315082     0.12500
H981        H  0.04084791  0.76380503  0.42650067     0.12500
C982        C  0.04387764  0.82483720  0.43636233     0.62100
F983        F  0.03309917  0.77531002  0.30060601    -0.23100
F984        F  0.99505925  0.72716429  0.32347217    -0.20400
F985        F  0.05110812  0.74148331  0.32060859    -0.20100
F986        F  0.01957499  0.83526728  0.43587798    -0.20200
F987        F  0.07611389  0.85270601  0.44332366    -0.18700
F988        F  0.03491944  0.80114760  0.45865140    -0.23200
C989        C  0.08858766  0.54439831  0.40573545    -0.06000
C990        C  0.10268600  0.54052779  0.37953679    -0.00100
C991        C  0.11253584  0.56577559  0.35767569    -0.08600
C992        C  0.10645322  0.59341822  0.36219414    -0.06000
C993        C  0.09013185  0.59598459  0.38744715    -0.00100
C994        C  0.08121148  0.57136613  0.40972121    -0.08500
C995        C  0.06288128  0.57310622  0.43688631     0.61800
H996        H  0.08219391  0.52533989  0.42258948     0.12500
H997        H  0.11229801  0.61210953  0.34507246     0.12500
C998        C  0.12943412  0.56347147  0.32982457     0.62100
F999        F  0.05806950  0.54787939  0.45673126    -0.23100
F1000       F  0.03071638  0.56846623  0.42928687    -0.20400
F1001       F  0.08243373  0.60514003  0.45038347    -0.20100
F1002       F  0.10713859  0.03393654  0.31355740    -0.20200
F1003       F  0.15947422  0.56314988  0.33683676    -0.20500
F1004       F  0.13806875  0.59128701  0.31174935    -0.23200
C1005       C  0.38039146  0.00000900  0.35777297    -0.06000
C1006       C  0.38932139  0.97542257  0.34904892    -0.00100
C1007       C  0.42402286  0.98610979  0.34173868    -0.08600
C1008       C  0.44974363  0.52161086  0.34504406    -0.06000
C1009       C  0.44139483  0.54597765  0.35584832    -0.00100
C1010       C  0.40646061  0.53539351  0.36256080    -0.08500
C1011       C  0.39575719  0.56041484  0.37463923     0.61800
H1012       H  0.35370329  0.99105600  0.36333008     0.12500
H1013       H  0.47641023  0.52995499  0.33954355     0.12500
C1014       C  0.43615957  0.96174296  0.33094794     0.62100
F1015       F  0.36008211  0.54520016  0.37645414    -0.23100
F1016       F  0.40743934  0.58882522  0.35678199    -0.20400
F1017       F  0.40958692  0.57126642  0.40246358    -0.20100
F1018       F  0.45380399  0.97404806  0.30506115    -0.20200
F1019       F  0.40925537  0.92841514  0.32564976    -0.20500
F1020       F  0.45845825  0.96061554  0.35151815    -0.23200
C1021       C  0.16996390  0.70868422  0.34445949    -0.06000
C1022       C  0.14648569  0.71935733  0.33615967    -0.00100
C1023       C  0.15921689  0.75288011  0.32480621    -0.08600
C1024       C  0.19513815  0.77612198  0.32537045    -0.06000
C1025       C  0.21862608  0.76692379  0.33702986    -0.00100
C1026       C  0.20604800  0.73189609  0.34505736    -0.08500
C1027       C  0.23006726  0.71887903  0.35485413     0.61800
H1028       H  0.15970887  0.68270638  0.35269782     0.12500
H1029       H  0.20482396  0.80249342  0.31841596     0.12500
C1030       C  0.13487234  0.76432500  0.31280022     0.62100
F1031       F  0.21308537  0.68305386  0.35524520    -0.23100
F1032       F  0.24256679  0.73101480  0.38279654    -0.20400
F1033       F  0.25750138  0.72999356  0.33582078    -0.20100
F1034       F  0.11725992  0.76890416  0.33546840    -0.20200
F1035       F  0.11140571  0.73946703  0.29345730    -0.20500
F1036       F  0.15254580  0.79524667  0.29800829    -0.23200
C1037       C  0.22764177  0.93835514  0.41326282    -0.06000
C1038       C  0.19519729  0.91843306  0.39959568    -0.00100
C1039       C  0.18785191  0.88831097  0.38363101    -0.08600
C1040       C  0.21418152  0.88026600  0.38022659    -0.06000
C1041       C  0.24762103  0.90106839  0.39237204    -0.00100
C1042       C  0.25411010  0.93000241  0.41039784    -0.08500
C1043       C  0.28845180  0.95239858  0.42629996     0.61800
H1044       H  0.23226629  0.96107315  0.42567591     0.12500
H1045       H  0.20861738  0.85735541  0.36768373     0.12500
C1046       C  0.15207036  0.86414946  0.37086416     0.62100
F1047       F  0.28819232  0.97822737  0.44306012    -0.23100
F1048       F  0.31481378  0.96815633  0.40636802    -0.20400
F1049       F  0.29528682  0.93223067  0.44486890    -0.20100
F1050       F  0.14151729  0.88218949  0.35317198    -0.20200
F1051       F  0.12913858  0.84920386  0.39350842    -0.20500
F1052       F  0.15124852  0.83779658  0.35415212    -0.23200
C1053       C  0.44772499  0.91069415  0.41029384    -0.06000
C1054       C  0.42666771  0.87707220  0.39882993    -0.00100
C1055       C  0.43998048  0.85420880  0.39750504    -0.08600
C1056       C  0.47483086  0.86676649  0.40585764    -0.06000
C1057       C  0.99558944  0.90065257  0.41553698    -0.00100
C1058       C  0.48220598  0.92295548  0.41906597    -0.08500
C1059       C  0.00139749  0.95940986  0.43000447     0.61800
H1060       H  0.43728505  0.92795654  0.41195730     0.12500
H1061       H  0.48626006  0.85069565  0.40220595     0.12500
C1062       C  0.41781663  0.81694022  0.38710430     0.62100
F1063       F  0.98231641  0.96441440  0.45120108    -0.23100
F1064       F  0.00721588  0.98192233  0.40732467    -0.20400
F1065       F  0.03286359  0.96724385  0.44254861    -0.20100
F1066       F  0.40983371  0.81603188  0.35773811    -0.20200
F1067       F  0.38751946  0.80082292  0.40290999    -0.20500
F1068       F  0.43473565  0.79833528  0.39071991    -0.23200
C1069       C  0.15043562  0.50257858  0.28316852    -0.06000
C1070       C  0.13477781  0.96722095  0.29085633    -0.00100
C1071       C  0.12143238  0.94128535  0.26834439    -0.08600
C1072       C  0.12521758  0.95159606  0.23881683    -0.06000
C1073       C  0.14040531  0.98651114  0.23102926    -0.00100
C1074       C  0.15272657  0.51295799  0.25395299    -0.08500
C1075       C  0.16979446  0.55151880  0.24768415     0.61800
H1076       H  0.16072670  0.52218747  0.30040074     0.12500
H1077       H  0.11518556  0.93221541  0.22141497     0.12500
C1078       C  0.10313298  0.90289689  0.27504535     0.62100
F1079       F  0.18392997  0.57174060  0.27265045    -0.23100
F1080       F  0.14547779  0.55899232  0.23637510    -0.20400
F1081       F  0.19635961  0.56100471  0.22805513    -0.20100
F1082       F  0.07097497  0.89268987  0.28679072    -0.20200
F1083       F  0.12281041  0.89623444  0.29459379    -0.20500
F1084       F  0.09800732  0.88295346  0.25015182    -0.23200
C1085       C  0.18574741  0.52100405  0.02279008    -0.06000
C1086       C  0.17056325  0.99338762  0.04163543    -0.00100
C1087       C  0.15184283  0.95920307  0.02971362    -0.08600
C1088       C  0.14553602  0.95501530  0.49959151    -0.06000
C1089       C  0.15624378  0.98347582  0.48118406    -0.00100
C1090       C  0.17884629  0.51658981  0.49276927    -0.08500
C1091       C  0.19184957  0.54800956  0.47340496     0.61800
H1092       H  0.20125884  0.54694977  0.03172232     0.12500
H1093       H  0.13019470  0.92929066  0.49010445     0.12500
C1094       C  0.13716758  0.92687699  0.04826391     0.62100
F1095       F  0.21089269  0.57865633  0.48909213    -0.23100
F1096       F  0.16062051  0.04786344  0.46010216    -0.20400
F1097       F  0.21291391  0.54672822  0.45201755    -0.20100
F1098       F  0.11049734  0.92444846  0.06511568    -0.20200
F1099       F  0.16298508  0.92806810  0.06603726    -0.20500
F1100       F  0.12383988  0.89694606  0.03132333    -0.23200
C1101       C  0.30141350  0.82053761  0.01083500    -0.06000
C1102       C  0.32596200  0.81066962  0.01749495    -0.00100
C1103       C  0.33784351  0.79744238  0.99475594    -0.08600
C1104       C  0.32810842  0.79966869  0.46588008    -0.06000
C1105       C  0.30747063  0.81421233  0.45889010    -0.00100
C1106       C  0.29171871  0.82271852  0.48194584    -0.08500
C1107       C  0.26554538  0.83432707  0.47636046     0.61800
H1108       H  0.29126691  0.82904247  0.02848167     0.12500
H1109       H  0.33918350  0.79211835  0.44832841     0.12500
C1110       C  0.36035080  0.78133629  0.00056656     0.62100
F1111       F  0.24479047  0.82775206  0.00091283    -0.23100
F1112       F  0.24309233  0.81494601  0.45380199    -0.20400
F1113       F  0.28261509  0.86898088  0.46927324    -0.20100
F1114       F  0.34620526  0.75740447  0.02267660    -0.20200
F1115       F  0.39363461  0.80672121  0.00840644    -0.20500
F1116       F  0.36170022  0.76389231  0.47599401    -0.23200
C1117       C  0.32764433  0.85515281  0.24968533    -0.06000
C1118       C  0.33932950  0.83945640  0.26982239    -0.00100
C1119       C  0.35328854  0.81925505  0.25897261    -0.08600
C1120       C  0.35499952  0.81566359  0.22838182    -0.06000
C1121       C  0.34376512  0.83184730  0.20820889    -0.00100
C1122       C  0.32985970  0.85211722  0.21921328    -0.08500
C1123       C  0.31875707  0.87189393  0.19924912     0.61800
H1124       H  0.31658699  0.87015018  0.25813094     0.12500
H1125       H  0.36576733  0.80041118  0.21990703     0.12500
C1126       C  0.36777289  0.80284403  0.27937784     0.62100
F1127       F  0.30844413  0.89189255  0.21471985    -0.23100
F1128       F  0.29104815  0.84887828  0.18186060    -0.20400
F1129       F  0.34627345  0.89390929  0.18199629    -0.20100
F1130       F  0.34127330  0.77703834  0.29523824    -0.20200
F1131       F  0.39189408  0.82779104  0.29830235    -0.20500
F1132       F  0.38407616  0.78815451  0.26426113    -0.23200
C1133       C  0.27022087  0.68947463  0.08576864    -0.06000
C1134       C  0.27830474  0.71205012  0.11006269    -0.00100
C1135       C  0.26166207  0.69832994  0.13714623    -0.08600
C1136       C  0.23788674  0.66272089  0.13863604    -0.06000
C1137       C  0.23005963  0.64046064  0.11446935    -0.00100
C1138       C  0.24633198  0.65373772  0.08753414    -0.08500
C1139       C  0.23960655  0.63007180  0.06130912     0.61800
H1140       H  0.28295002  0.70001086  0.06524525     0.12500
H1141       H  0.22485931  0.65169069  0.15897604     0.12500
C1142       C  0.26901296  0.72039972  0.16474928     0.62100
F1143       F  0.25967913  0.64793567  0.03769187    -0.23100
F1144       F  0.20515137  0.61461923  0.05278120    -0.20400
F1145       F  0.24738233  0.60470886  0.06859374    -0.20100
F1146       F  0.25781625  0.74391837  0.16084336    -0.20200
F1147       F  0.30416872  0.73776006  0.17122112    -0.20500
F1148       F  0.25200492  0.70066923  0.18878145    -0.23200
C1149       C  0.03507873  0.93996174  0.07987378    -0.06000
C1150       C  0.05340133  0.93202531  0.10082580    -0.00100
C1151       C  0.03775117  0.89734393  0.11101059    -0.08600
C1152       C  0.50388978  0.87293241  0.10340937    -0.06000
C1153       C  0.48462338  0.88209939  0.08492834    -0.00100
C1154       C  0.50109478  0.91515261  0.07220216    -0.08500
C1155       C  0.48222597  0.92459530  0.04960722     0.61800
H1156       H  0.04723225  0.96581220  0.07114653     0.12500
H1157       H  0.49074564  0.84750336  0.11298653     0.12500
C1158       C  0.05629083  0.88543702  0.13182964     0.62100
F1159       F  0.50410317  0.95612496  0.03688340    -0.23100
F1160       F  0.45533989  0.92660971  0.06237560    -0.20400
F1161       F  0.46886213  0.89950431  0.02774028    -0.20100
F1162       F  0.06092022  0.90145154  0.15882562    -0.20200
F1163       F  0.08812872  0.89335328  0.12065089    -0.20500
F1164       F  0.03759061  0.85000496  0.13598735    -0.23200
C1165       C  0.45457367  0.64616176  0.23932451    -0.06000
C1166       C  0.48231555  0.66012958  0.21958698    -0.00100
C1167       C  0.01633545  0.68178645  0.22993737    -0.08600
C1168       C  0.02165394  0.68368206  0.26036154    -0.06000
C1169       C  0.49454741  0.66365461  0.28047731    -0.00100
C1170       C  0.45994775  0.64649920  0.26960175    -0.08500
C1171       C  0.42881119  0.62600880  0.28899378     0.61800
H1172       H  0.42834613  0.63191314  0.23069900     0.12500
H1173       H  0.04780306  0.69825867  0.26909964     0.12500
C1174       C  0.04744386  0.70133655  0.21031641     0.62100
F1175       F  0.39771975  0.61264367  0.27365544    -0.23100
F1176       F  0.42846444  0.64718872  0.31105411    -0.20400
F1177       F  0.43041380  0.59845093  0.30083031    -0.20100
F1178       F  0.04072570  0.72031905  0.19026111    -0.20200
F1179       F  0.05453685  0.67832331  0.19585183    -0.20500
F1180       F  0.07691338  0.72428207  0.22608667    -0.23200
C1181       C  0.01603318  0.66193926  0.02106280    -0.06000
C1182       C  0.48249200  0.63661759  0.02911404    -0.00100
C1183       C  0.45957771  0.61631730  0.00556817    -0.08600
C1184       C  0.47176225  0.62418116  0.47660974    -0.06000
C1185       C  0.50556784  0.64956070  0.46968053    -0.00100
C1186       C  0.02740567  0.67027543  0.49171662    -0.08500
C1187       C  0.06332242  0.70044857  0.48547883     0.61800
H1188       H  0.03405158  0.67623772  0.03870844     0.12500
H1189       H  0.45456509  0.60929185  0.45867851     0.12500
C1190       C  0.42246011  0.58728642  0.01030804     0.62100
F1191       F  0.07940330  0.71995214  0.51041553    -0.23100
F1192       F  0.06092920  0.72203349  0.46526417    -0.20400
F1193       F  0.08407011  0.68822582  0.47462309    -0.20100
F1194       F  0.40384777  0.60017094  0.02432643    -0.20200
F1195       F  0.42252101  0.56146895  0.02677752    -0.20500
F1196       F  0.40525566  0.57215095  0.98424310    -0.23200
C1197       C  0.44470165  0.76505582  0.10602218    -0.06000
C1198       C  0.42942348  0.76670251  0.13240323    -0.00100
C1199       C  0.42153811  0.74098235  0.15355944    -0.08600
C1200       C  0.42709736  0.71329440  0.14679524    -0.06000
C1201       C  0.43959943  0.71020868  0.11941550    -0.00100
C1202       C  0.44993388  0.73717926  0.09917069    -0.08500
C1203       C  0.46632702  0.73633385  0.07049878     0.61800
H1204       H  0.45022944  0.78454023  0.08984157     0.12500
H1205       H  0.42126938  0.69368517  0.16294053     0.12500
C1206       C  0.40694935  0.74140970  0.18328213     0.62100
F1207       F  0.47487981  0.76523200  0.05386629    -0.23100
F1208       F  0.44346097  0.70725761  0.05439126    -0.20400
F1209       F  0.99331773  0.73272393  0.07272843    -0.20100
F1210       F  0.37427359  0.71268764  0.18568789    -0.20200
F1211       F  0.40456263  0.77073756  0.18811373    -0.20500
F1212       F  0.42829199  0.74030003  0.20483940    -0.23200
C1213       C  0.41603024  0.95530119  0.10577764    -0.06000
C1214       C  0.38132816  0.93017499  0.11032304    -0.00100
C1215       C  0.35536558  0.93973834  0.10751287    -0.08600
C1216       C  0.36583402  0.97512630  0.10430921    -0.06000
C1217       C  0.40087607  0.00036816  0.10158831    -0.00100
C1218       C  0.42586052  0.98970424  0.09951974    -0.08500
C1219       C  0.46286305  0.51384977  0.09127839     0.61800
H1220       H  0.43567419  0.94780599  0.10634605     0.12500
H1221       H  0.34694827  0.98355978  0.10550076     0.12500
C1222       C  0.31696629  0.91318220  0.10874570     0.62100
F1223       F  0.47136028  0.49904347  0.06849269    -0.23100
F1224       F  0.48461603  0.51901050  0.11484227    -0.20400
F1225       F  0.46843445  0.54560951  0.08192532    -0.20100
F1226       F  0.30989569  0.89412209  0.13393431    -0.20200
F1227       F  0.30749587  0.89120121  0.08469306    -0.20500
F1228       F  0.29666973  0.92857668  0.10853517    -0.23200
C1229       C  0.28382836  0.57409595  0.16520498    -0.06000
C1230       C  0.26090140  0.53841229  0.16198927    -0.00100
C1231       C  0.27455430  0.51584450  0.15931433    -0.08600
C1232       C  0.31084207  0.53029895  0.15760414    -0.06000
C1233       C  0.33352025  0.56630361  0.15787145    -0.00100
C1234       C  0.31989826  0.58857881  0.16291664    -0.08500
C1235       C  0.34299144  0.62761621  0.16534861     0.61800
H1236       H  0.27307763  0.59098302  0.16757384     0.12500
H1237       H  0.32157166  0.51356226  0.15401819     0.12500
C1238       C  0.25214902  0.97738889  0.15843595     0.62100
F1239       F  0.32518510  0.64313815  0.17632264    -0.23100
F1240       F  0.35512270  0.64125329  0.13808895    -0.20400
F1241       F  0.37066147  0.63578580  0.18404269    -0.20100
F1242       F  0.23426513  0.96689333  0.13207575    -0.20200
F1243       F  0.22878767  0.96729075  0.18107529    -0.20500
F1244       F  0.27097894  0.96061999  0.16156716    -0.23200
C1245       C  0.06794012  0.56663277  0.16728313    -0.06000
C1246       C  0.09401971  0.58022088  0.14641529    -0.00100
C1247       C  0.09513935  0.60446771  0.12612619    -0.08600
C1248       C  0.06861714  0.61274882  0.12628000    -0.06000
C1249       C  0.04099237  0.59774764  0.14605731    -0.00100
C1250       C  0.04141617  0.57512068  0.16783516    -0.08500
C1251       C  0.51391994  0.55914337  0.19236774     0.61800
H1252       H  0.06785797  0.54814621  0.18250907     0.12500
H1253       H  0.06902341  0.63064888  0.11027074     0.12500
C1254       C  0.12415712  0.62127063  0.10414914     0.62100
F1255       F  0.48154780  0.53854414  0.17964341    -0.23100
F1256       F  0.51404605  0.58524118  0.20896950    -0.20400
F1257       F  0.52005261  0.53864222  0.21121246    -0.20100
F1258       F  0.12266218  0.59647270  0.08496619    -0.20200
F1259       F  0.15578596  0.63716744  0.11875110    -0.20500
F1260       F  0.12200810  0.64618525  0.08793196    -0.23200
O1261       O  0.38392680  0.60328603  0.63085701    -0.85600
O1262       O  0.42898815  0.65595025  0.59754447    -0.82600
C1263       C  0.44700695  0.68121464  0.61513895     0.97900
O1264       O  0.47114159  0.68221517  0.63010874    -0.82600
O1265       O  0.49760593  0.65729840  0.66934622    -0.85300
C1266       C  0.47484682  0.64675030  0.68920370     1.02400
O1267       O  0.44514473  0.62130636  0.68393497    -0.78000
O1268       O  0.38831779  0.56555538  0.65727849    -0.78200
C1269       C  0.37113219  0.57956893  0.64912761     1.02400
O1270       O  0.39792958  0.55280488  0.60086572    -0.85600
O1271       O  0.44517169  0.60672567  0.56834334    -0.82600
C1272       C  0.47291198  0.63283717  0.56104506     0.97900
O1273       O  0.49132981  0.65524667  0.58060859    -0.82600
O1274       O  0.01305346  0.62266772  0.62089990    -0.85300
C1275       C  0.01315558  0.60523567  0.64249803     1.02400
O1276       O  0.49008455  0.59722504  0.66236335    -0.78100
O1277       O  0.43580619  0.54948187  0.62989569    -0.78200
C1278       C  0.41256106  0.53636460  0.61046505     1.02400
Cr1279     Cr  0.41641369  0.60534764  0.60113084     1.93700
Cr1280     Cr  0.49052212  0.65184043  0.62529101     1.93200
Cr1281     Cr  0.44044847  0.58565005  0.65634825     1.39100
O1282       O  0.44914449  0.61422846  0.62719069    -1.23300
O1283       O  0.38277900  0.77133314  0.61701202    -0.85600
O1284       O  0.32624298  0.75761030  0.58560247    -0.82600
C1285       C  0.30507272  0.74862601  0.60658354     0.97900
O1286       O  0.30621841  0.77137431  0.62370932    -0.82600
O1287       O  0.33265564  0.83233223  0.65627969    -0.85300
C1288       C  0.35091833  0.82974926  0.67656250     1.02400
O1289       O  0.37703711  0.82743880  0.67001156    -0.78000
O1290       O  0.42481045  0.81819394  0.63755181    -0.78200
C1291       C  0.41097186  0.78611168  0.63070956     1.02400
O1292       O  0.42847915  0.82960645  0.58154466    -0.85600
O1293       O  0.36818783  0.82004660  0.55325085    -0.82600
C1294       C  0.33774546  0.81360438  0.54833944     0.97900
O1295       O  0.31744200  0.80820837  0.56959895    -0.82600
O1296       O  0.34942715  0.86889419  0.60148570    -0.85300
C1297       C  0.37290740  0.89348455  0.61619430     1.02400
O1298       O  0.39045611  0.88772204  0.63523424    -0.78100
O1299       O  0.43261898  0.87563520  0.60198537    -0.78200
C1300       C  0.44621696  0.86174954  0.58770145     1.02400
Cr1301     Cr  0.37605461  0.79666094  0.58578939     1.93700
Cr1302     Cr  0.32910110  0.82031833  0.61277921     1.93200
Cr1303     Cr  0.40377145  0.85020187  0.63491890     1.39100
O1304       O  0.36960491  0.82244774  0.61127667    -1.23300
O1305       O  0.21133523  0.53987663  0.67538941    -0.85600
O1306       O  0.21250762  0.58903520  0.64104046    -0.82600
C1307       C  0.20635360  0.60283216  0.61987594     0.97900
O1308       O  0.17828034  0.58632263  0.60547544    -0.82600
O1309       O  0.17838994  0.53073295  0.58037293    -0.85300
C1310       C  0.17149325  0.50066645  0.57371070     1.02400
O1311       O  0.15834054  0.97829036  0.59278198    -0.78000
O1312       O  0.20658430  0.50518732  0.63913907    -0.78200
C1313       C  0.22453028  0.52638297  0.65916325     1.02400
O1314       O  0.14097705  0.52043616  0.69158181    -0.85600
O1315       O  0.14426094  0.57398620  0.65894923    -0.82600
C1316       C  0.11688995  0.56359760  0.64345566     0.97900
O1317       O  0.10885146  0.54093813  0.62379319    -0.82600
O1318       O  0.10489410  0.98669308  0.59400297    -0.85300
C1319       C  0.08915966  0.96038851  0.61025291     1.02400
O1320       O  0.10372833  0.95868432  0.63354593    -0.78100
O1321       O  0.15194647  0.97981438  0.68097258    -0.78200
C1322       C  0.14340681  0.99543183  0.69954066     1.02400
Cr1323     Cr  0.17565878  0.55346125  0.66468251     1.93700
Cr1324     Cr  0.14390767  0.53510841  0.60319188     1.93200
Cr1325     Cr  0.15514226  0.98356396  0.63660015     1.39100
O1326       O  0.15795368  0.52379990  0.63516088    -1.23300
O1327       O  0.26742733  0.82250247  0.82637404    -0.85600
O1328       O  0.26755576  0.87103337  0.86259910    -0.82600
C1329       C  0.27411280  0.89143473  0.88391709     0.97900
O1330       O  0.30329044  0.90434582  0.89666306    -0.82600
O1331       O  0.30243316  0.84843524  0.92267873    -0.85300
C1332       C  0.30779066  0.82398382  0.92798811     1.02400
O1333       O  0.31972117  0.81310859  0.90798451    -0.78000
O1334       O  0.27276146  0.79266444  0.86181990    -0.78200
C1335       C  0.25486756  0.79529504  0.84162070     1.02400
O1336       O  0.33699858  0.87263912  0.80948341    -0.85600
O1337       O  0.33537636  0.92319135  0.84301822    -0.82600
C1338       C  0.36440586  0.93911640  0.85636175     0.97900
O1339       O  0.37180105  0.92507435  0.87662184    -0.82600
O1340       O  0.37378784  0.87499577  0.90766201    -0.85300
C1341       C  0.38992789  0.86553602  0.89076676     1.02400
O1342       O  0.37528612  0.84814895  0.86775236    -0.78100
O1343       O  0.32743629  0.82109545  0.82016894    -0.78200
C1344       C  0.33570760  0.84494200  0.80168405     1.02400
Cr1345     Cr  0.30331803  0.87157960  0.83753505     1.93700
Cr1346     Cr  0.33647930  0.88612651  0.89849476     1.93200
Cr1347     Cr  0.32371187  0.82150925  0.86444047     1.39100
O1348       O  0.32134447  0.85985575  0.86663804    -1.23300
O1349       O  0.09230224  0.87907825  0.89363408    -0.85600
O1350       O  0.14980260  0.92385983  0.92147762    -0.82600
C1351       C  0.17054902  0.93119367  0.90031582     0.97900
O1352       O  0.17109862  0.95044188  0.88000236    -0.82600
O1353       O  0.14730421  0.98279173  0.84179823    -0.85300
C1354       C  0.12878955  0.95950948  0.82291330     1.02400
O1355       O  0.10298712  0.93199699  0.83131061    -0.78000
O1356       O  0.05245778  0.88130244  0.86745790    -0.78200
C1357       C  0.06461598  0.86385566  0.87957706     1.02400
O1358       O  0.04972806  0.90099576  0.92243059    -0.85600
O1359       O  0.11104084  0.95403623  0.94694536    -0.82600
C1360       C  0.14256334  0.97580898  0.95082697     0.97900
O1361       O  0.16290001  0.98590244  0.92924268    -0.82600
O1362       O  0.13254839  0.51132705  0.89288087    -0.85300
C1363       C  0.10988335  0.51127611  0.87629968     1.02400
O1364       O  0.09194155  0.98584001  0.85784848    -0.78100
O1365       O  0.04677128  0.93808456  0.89382487    -0.78200
C1366       C  0.03292274  0.91453060  0.91205803     1.02400
Cr1367     Cr  0.10113463  0.91660015  0.91944239     1.93700
Cr1368     Cr  0.15075490  0.98032087  0.88591325     1.93200
Cr1369     Cr  0.07594976  0.93475362  0.86403147     1.39100
O1370       O  0.10921125  0.94381441  0.88964677    -1.23300
O1371       O  0.09743920  0.70974226  0.86294620    -0.85600
O1372       O  0.05378569  0.71767099  0.89877805    -0.82600
C1373       C  0.03439229  0.72360567  0.88200210     0.97900
O1374       O  0.01024180  0.69968985  0.86758492    -0.82600
O1375       O  0.48358063  0.64647429  0.83123293    -0.85300
C1376       C  0.00388872  0.65826123  0.80917372     1.02400
O1377       O  0.03373543  0.66234312  0.81278254    -0.78000
O1378       O  0.09241229  0.66608153  0.83761367    -0.78200
C1379       C  0.10970725  0.69773312  0.84485931     1.02400
O1380       O  0.08751097  0.64798827  0.89362286    -0.85600
O1381       O  0.04163378  0.65553726  0.92946254    -0.82600
C1382       C  0.51540597  0.65390451  0.93821475     0.97900
O1383       O  0.49540625  0.65558178  0.91914241    -0.82600
O1384       O  0.47180218  0.60031846  0.87996277    -0.85300
C1385       C  0.46987367  0.58188564  0.85832551     1.02400
O1386       O  0.49235795  0.59460352  0.83849595    -0.78100
O1387       O  0.04726502  0.60407749  0.86776879    -0.78200
C1388       C  0.07365477  0.61677551  0.88403802     1.02400
Cr1389     Cr  0.06762127  0.68079453  0.89463422     1.93700
Cr1390     Cr  0.49343419  0.65063919  0.87483634     1.93200
Cr1391     Cr  0.04059168  0.63353694  0.84083979     1.39100
O1392       O  0.03342991  0.65493703  0.87011578    -1.23300
C1393       C  0.04244557  0.80761431  0.85364582    -0.06000
C1394       C  0.04743452  0.82569210  0.88000468    -0.00100
C1395       C  0.04470816  0.80860702  0.90699566    -0.08600
C1396       C  0.04128020  0.77570088  0.90636705    -0.06000
C1397       C  0.03820232  0.75835742  0.88014021    -0.00100
C1398       C  0.03678716  0.77354675  0.85321263    -0.08500
C1399       C  0.02991352  0.75435416  0.82411515     0.61800
H1400       H  0.04448550  0.82091094  0.83341213     0.12500
H1401       H  0.04071736  0.76295482  0.92658632     0.12500
C1402       C  0.04499861  0.82447893  0.93670478     0.62100
F1403       F  0.03529130  0.77581615  0.80067061    -0.23100
F1404       F  0.99584880  0.72767040  0.82276068    -0.20400
F1405       F  0.05161264  0.74087175  0.82105241    -0.20100
F1406       F  0.02095087  0.83524975  0.93655538    -0.20200
F1407       F  0.07746277  0.85212008  0.94345218    -0.18700
F1408       F  0.03612351  0.80078654  0.95898504    -0.23200
C1409       C  0.08842071  0.54374153  0.90480282    -0.06000
C1410       C  0.10351437  0.54060188  0.87893740    -0.00100
C1411       C  0.11409940  0.56640588  0.85749419    -0.08600
C1412       C  0.10764994  0.59383645  0.86203862    -0.06000
C1413       C  0.09021652  0.59558361  0.88687435    -0.00100
C1414       C  0.08052296  0.57034748  0.90870885    -0.08500
C1415       C  0.06028920  0.57066195  0.93505431     0.61800
H1416       H  0.08145979  0.52426020  0.92134187     0.12500
H1417       H  0.11403557  0.61294238  0.84519352     0.12500
C1418       C  0.13194321  0.56477198  0.82998885     0.62100
F1419       F  0.05624880  0.54599644  0.95521389    -0.23100
F1420       F  0.02772542  0.56389323  0.92615057    -0.20400
F1421       F  0.07755494  0.60281832  0.94870479    -0.20100
F1422       F  0.10987959  0.03603707  0.81379739    -0.20200
F1423       F  0.16164793  0.56404010  0.83752806    -0.20500
F1424       F  0.14134758  0.59312971  0.81238815    -0.23200
C1425       C  0.38063700  0.00003637  0.85920210    -0.06000
C1426       C  0.38945776  0.97540653  0.85032060    -0.00100
C1427       C  0.42397789  0.98614286  0.84235458    -0.08600
C1428       C  0.44893099  0.52143433  0.84332456    -0.06000
C1429       C  0.44117550  0.54576000  0.85529022    -0.00100
C1430       C  0.40645417  0.53524318  0.86282421    -0.08500
C1431       C  0.39624582  0.56019358  0.87593915     0.61800
H1432       H  0.35405914  0.99109375  0.86513708     0.12500
H1433       H  0.47538196  0.52967843  0.83714924     0.12500
C1434       C  0.43589034  0.96186624  0.83086086     0.62100
F1435       F  0.36065529  0.54509147  0.87851646    -0.23100
F1436       F  0.40756516  0.58888227  0.85845602    -0.20400
F1437       F  0.41080863  0.57056431  0.90360097    -0.20100
F1438       F  0.45185470  0.97374499  0.80425666    -0.20200
F1439       F  0.40907324  0.92826845  0.82659158    -0.20500
F1440       F  0.45959162  0.96155741  0.85036018    -0.23200
C1441       C  0.16970587  0.70887816  0.84325038    -0.06000
C1442       C  0.14617499  0.71984279  0.83597794    -0.00100
C1443       C  0.15883017  0.75367683  0.82531605    -0.08600
C1444       C  0.19477487  0.77687481  0.82572061    -0.06000
C1445       C  0.21831756  0.76726372  0.83646191    -0.00100
C1446       C  0.20578784  0.73200698  0.84357684    -0.08500
C1447       C  0.22990502  0.71865913  0.85212787     0.61800
H1448       H  0.15955107  0.68267436  0.85090349     0.12500
H1449       H  0.20446776  0.80346456  0.81940609     0.12500
C1450       C  0.13442491  0.76546337  0.81416613     0.62100
F1451       F  0.21297763  0.68282875  0.85125856    -0.23100
F1452       F  0.24247623  0.72951135  0.88027026    -0.20400
F1453       F  0.25729041  0.73075909  0.83294556    -0.20100
F1454       F  0.11714108  0.76959084  0.83734929    -0.20200
F1455       F  0.11070923  0.74106696  0.79466643    -0.20500
F1456       F  0.15198845  0.79670609  0.79981116    -0.23200
C1457       C  0.22718967  0.93750970  0.91386645    -0.06000
C1458       C  0.19504775  0.91820317  0.89958319    -0.00100
C1459       C  0.18795135  0.88860724  0.88290067    -0.08600
C1460       C  0.21421520  0.88044570  0.87956467    -0.06000
C1461       C  0.24737995  0.90064922  0.89239111    -0.00100
C1462       C  0.25362240  0.92910143  0.91095960    -0.08500
C1463       C  0.28771056  0.95099418  0.92735389     0.61800
H1464       H  0.23164349  0.95985116  0.92676912     0.12500
H1465       H  0.20879036  0.85786901  0.86658199     0.12500
C1466       C  0.15242344  0.86492759  0.86944620     0.62100
F1467       F  0.28732637  0.97654645  0.94442431    -0.23100
F1468       F  0.31444203  0.96707273  0.90778748    -0.20400
F1469       F  0.29406218  0.93031013  0.94569971    -0.20100
F1470       F  0.14192157  0.88364825  0.85260134    -0.20200
F1471       F  0.12914140  0.84866298  0.89162910    -0.20500
F1472       F  0.15212106  0.83959019  0.85166467    -0.23200
C1473       C  0.44724117  0.90966068  0.90987082    -0.06000
C1474       C  0.42617951  0.87585542  0.89887056    -0.00100
C1475       C  0.43956653  0.85301745  0.89797477    -0.08600
C1476       C  0.47447892  0.86574917  0.90640490    -0.06000
C1477       C  0.99530663  0.89935259  0.91606782    -0.00100
C1478       C  0.48173612  0.92211304  0.91865254    -0.08500
C1479       C  0.00061311  0.95743949  0.93200185     0.61800
H1480       H  0.43677033  0.92692097  0.91117739     0.12500
H1481       H  0.48592475  0.84958286  0.90333098     0.12500
C1482       C  0.41742619  0.81563219  0.88788976     0.62100
F1483       F  0.98173379  0.96150939  0.95395534    -0.23100
F1484       F  0.00564425  0.98044336  0.90993854    -0.20400
F1485       F  0.03244820  0.96540367  0.94382029    -0.20100
F1486       F  0.40935161  0.81437374  0.85850633    -0.20200
F1487       F  0.38716921  0.79966900  0.90375206    -0.20500
F1488       F  0.43441393  0.79712772  0.89174340    -0.23200
C1489       C  0.15170934  0.50186592  0.78313162    -0.06000
C1490       C  0.13460820  0.96693371  0.79091654    -0.00100
C1491       C  0.12180218  0.94110281  0.76834236    -0.08600
C1492       C  0.12546586  0.95151660  0.73884714    -0.06000
C1493       C  0.14025696  0.98643793  0.73115221    -0.00100
C1494       C  0.15423873  0.51220426  0.75389278    -0.08500
C1495       C  0.17187192  0.55079475  0.74758199     0.61800
H1496       H  0.16199322  0.52143309  0.80028412     0.12500
H1497       H  0.11576762  0.93220632  0.72140207     0.12500
C1498       C  0.10444015  0.90273927  0.77494958     0.62100
F1499       F  0.18617054  0.57098376  0.77254244    -0.23100
F1500       F  0.14798054  0.55878921  0.73616055    -0.20400
F1501       F  0.19842806  0.55983750  0.72803900    -0.20100
F1502       F  0.07213879  0.89161262  0.78677090    -0.20200
F1503       F  0.12469743  0.89677075  0.79440285    -0.20500
F1504       F  0.09982739  0.88304766  0.74999169    -0.23200
C1505       C  0.18668761  0.52072121  0.52286544    -0.06000
C1506       C  0.17097867  0.99317954  0.54177652    -0.00100
C1507       C  0.15219697  0.95900963  0.52982030    -0.08600
C1508       C  0.14510316  0.95517784  0.99951174    -0.06000
C1509       C  0.15582343  0.98361558  0.98108247    -0.00100
C1510       C  0.17824049  0.51677547  0.99263738    -0.08500
C1511       C  0.19142313  0.54811580  0.97315356     0.61800
H1512       H  0.20233025  0.54662947  0.53182485     0.12500
H1513       H  0.12979905  0.92943763  0.99004397     0.12500
C1514       C  0.13715129  0.92668183  0.54838030     0.62100
F1515       F  0.21011420  0.57883056  0.98882344    -0.23100
F1516       F  0.16052453  0.04798778  0.95956380    -0.20400
F1517       F  0.21288051  0.54685605  0.95213982    -0.20100
F1518       F  0.11038119  0.92448513  0.56493398    -0.20200
F1519       F  0.16265788  0.92766642  0.56643812    -0.20500
F1520       F  0.12382976  0.89673441  0.53146399    -0.23200
C1521       C  0.30149691  0.82124532  0.51101444    -0.06000
C1522       C  0.32552422  0.81068888  0.51764588    -0.00100
C1523       C  0.33726484  0.79742149  0.49483838    -0.08600
C1524       C  0.32840434  0.79926324  0.96578685    -0.06000
C1525       C  0.30718607  0.81313997  0.95875565    -0.00100
C1526       C  0.29122511  0.82140317  0.98178649    -0.08500
C1527       C  0.26402317  0.83164950  0.97615044     0.61800
H1528       H  0.29156038  0.82992805  0.52869756     0.12500
H1529       H  0.33961476  0.79184751  0.94825135     0.12500
C1530       C  0.35947413  0.78096906  0.50055880     0.62100
F1531       F  0.24578681  0.83001470  0.50085408    -0.23100
F1532       F  0.24128108  0.81087214  0.95426916    -0.20400
F1533       F  0.27982347  0.86592659  0.96803686    -0.20100
F1534       F  0.34509362  0.75690658  0.52254729    -0.20200
F1535       F  0.39281536  0.80610632  0.50851797    -0.20500
F1536       F  0.36266183  0.76418414  0.97609097    -0.23200
C1537       C  0.32850371  0.85568269  0.74979998    -0.06000
C1538       C  0.33962755  0.83949066  0.76992492    -0.00100
C1539       C  0.35301308  0.81877627  0.75906935    -0.08600
C1540       C  0.35463481  0.81510991  0.72847991    -0.06000
C1541       C  0.34381028  0.83164967  0.70832276    -0.00100
C1542       C  0.33057987  0.85251170  0.71933040    -0.08500
C1543       C  0.31994641  0.87266434  0.69936521     0.61800
H1544       H  0.31790773  0.87109344  0.75824802     0.12500
H1545       H  0.36494533  0.79945843  0.71998764     0.12500
C1546       C  0.36695650  0.80183926  0.77945963     0.62100
F1547       F  0.31031275  0.89321090  0.71483561    -0.23100
F1548       F  0.29192360  0.84991122  0.68214059    -0.20400
F1549       F  0.34751143  0.89420218  0.68195023    -0.20100
F1550       F  0.34015785  0.77622025  0.79521389    -0.20200
F1551       F  0.39125190  0.82647361  0.79848359    -0.20500
F1552       F  0.38287442  0.78675958  0.76432942    -0.23200
C1553       C  0.26908914  0.68928842  0.58570836    -0.06000
C1554       C  0.27856345  0.71152060  0.61035925    -0.00100
C1555       C  0.26359108  0.69749319  0.63787548    -0.08600
C1556       C  0.23988258  0.66187838  0.63941267    -0.06000
C1557       C  0.23059162  0.63990027  0.61486493    -0.00100
C1558       C  0.24527883  0.65354072  0.58749440    -0.08500
C1559       C  0.23701641  0.63027278  0.56073738     0.61800
H1560       H  0.28061701  0.70014095  0.56487251     0.12500
H1561       H  0.22804424  0.65065512  0.66008892     0.12500
C1562       C  0.27277199  0.71926427  0.66584999     0.62100
F1563       F  0.25604956  0.64841121  0.53677476    -0.23100
F1564       F  0.20223752  0.61533490  0.55345651    -0.20400
F1565       F  0.24472653  0.60452498  0.56658830    -0.20100
F1566       F  0.26113592  0.74263905  0.66380985    -0.20200
F1567       F  0.30830163  0.73680380  0.67050169    -0.20500
F1568       F  0.25761118  0.69922101  0.69018757    -0.23200
C1569       C  0.03545211  0.93942558  0.57990938    -0.06000
C1570       C  0.05394619  0.93166965  0.60080746    -0.00100
C1571       C  0.03866350  0.89699752  0.61094043    -0.08600
C1572       C  0.50368193  0.87291850  0.60357509    -0.06000
C1573       C  0.48439161  0.88206519  0.58508942    -0.00100
C1574       C  0.50085295  0.91517365  0.57245445    -0.08500
C1575       C  0.48208387  0.92457663  0.54973151     0.61800
H1576       H  0.04738959  0.96527078  0.57117462     0.12500
H1577       H  0.49057343  0.84745199  0.61308600     0.12500
C1578       C  0.05763261  0.88521854  0.63141247     0.62100
F1579       F  0.50391751  0.95628344  0.53725547    -0.23100
F1580       F  0.45485760  0.92618253  0.56225818    -0.20400
F1581       F  0.46921835  0.89967033  0.52770937    -0.20100
F1582       F  0.06208323  0.90075473  0.65860908    -0.20200
F1583       F  0.08959073  0.89379577  0.62008997    -0.20500
F1584       F  0.03940399  0.84970357  0.63516609    -0.23200
C1585       C  0.45529161  0.64636563  0.73958698    -0.06000
C1586       C  0.48306957  0.66013469  0.71986672    -0.00100
C1587       C  0.01629069  0.68136067  0.72974224    -0.08600
C1588       C  0.02144195  0.68345607  0.76018714    -0.06000
C1589       C  0.49522587  0.66375453  0.78074792    -0.00100
C1590       C  0.46062554  0.64696510  0.76990190    -0.08500
C1591       C  0.42941280  0.62730523  0.78941834     0.61800
H1592       H  0.42906539  0.63218403  0.73094741     0.12500
H1593       H  0.04754738  0.69815666  0.76900406     0.12500
C1594       C  0.04749799  0.70083685  0.71020271     0.62100
F1595       F  0.39836747  0.61466874  0.77413962    -0.23100
F1596       F  0.42985552  0.64901348  0.81136867    -0.20400
F1597       F  0.43008676  0.59933971  0.80144237    -0.20100
F1598       F  0.04082120  0.71961864  0.68990291    -0.20200
F1599       F  0.05475888  0.67778004  0.69602507    -0.20500
F1600       F  0.07685547  0.72395287  0.72600629    -0.23200
C1601       C  0.01583582  0.66363912  0.52091328    -0.06000
C1602       C  0.48323016  0.63731275  0.52921378    -0.00100
C1603       C  0.46010113  0.61710247  0.50574073    -0.08600
C1604       C  0.47153271  0.62330810  0.97651540    -0.06000
C1605       C  0.50542533  0.64867321  0.96976747    -0.00100
C1606       C  0.02764887  0.66800759  0.99183316    -0.08500
C1607       C  0.06496294  0.69538216  0.98584013     0.61800
H1608       H  0.03278972  0.68003701  0.53836876     0.12500
H1609       H  0.45448109  0.60842475  0.95850897     0.12500
C1610       C  0.42304989  0.58802910  0.51064247     0.62100
F1611       F  0.08202967  0.71409965  0.01084077    -0.23100
F1612       F  0.06574153  0.71846195  0.96545832    -0.20400
F1613       F  0.08287535  0.67980591  0.97535793    -0.20100
F1614       F  0.40459344  0.60079269  0.52509928    -0.20200
F1615       F  0.42331605  0.56208544  0.52676681    -0.20500
F1616       F  0.40555084  0.57310128  0.48463596    -0.23200
C1617       C  0.44459769  0.76466099  0.60569697    -0.06000
C1618       C  0.42947153  0.76646204  0.63212111    -0.00100
C1619       C  0.42193139  0.74100156  0.65345418    -0.08600
C1620       C  0.42779868  0.71346402  0.64687766    -0.06000
C1621       C  0.44018821  0.71021603  0.61948991    -0.00100
C1622       C  0.45007310  0.73689548  0.59901091    -0.08500
C1623       C  0.46625225  0.73586595  0.57026831     0.61800
H1624       H  0.44982797  0.78393091  0.58937583     0.12500
H1625       H  0.42221014  0.69404193  0.66315655     0.12500
C1626       C  0.40732517  0.74149218  0.68315580     0.62100
F1627       F  0.47442529  0.76452045  0.55342498    -0.23100
F1628       F  0.44338044  0.70655069  0.55442113    -0.20400
F1629       F  0.99655325  0.73456678  0.57466704    -0.20100
F1630       F  0.37488549  0.71247834  0.68575205    -0.20200
F1631       F  0.40439046  0.77054415  0.68775231    -0.20500
F1632       F  0.42896081  0.74100080  0.70475087    -0.23200
C1633       C  0.41531896  0.95453388  0.60593866    -0.06000
C1634       C  0.38062437  0.92940046  0.61042492    -0.00100
C1635       C  0.35462925  0.93890976  0.60760079    -0.08600
C1636       C  0.36506847  0.97428697  0.60440432    -0.06000
C1637       C  0.40012246  0.99955784  0.60177659    -0.00100
C1638       C  0.42514925  0.98893995  0.59976936    -0.08500
C1639       C  0.46407238  0.51363321  0.59192514     0.61800
H1640       H  0.43497523  0.94705276  0.60653000     0.12500
H1641       H  0.34615435  0.98268682  0.60555527     0.12500
C1642       C  0.31624061  0.91230863  0.60885069     0.62100
F1643       F  0.47262678  0.49892240  0.56910260    -0.23100
F1644       F  0.48549365  0.51830059  0.61562311    -0.20400
F1645       F  0.47008595  0.54561920  0.58279163    -0.20100
F1646       F  0.30924302  0.89318506  0.63399609    -0.20200
F1647       F  0.30675480  0.89038960  0.58475281    -0.20500
F1648       F  0.29590246  0.92765691  0.60875718    -0.23200
C1649       C  0.28485647  0.57365742  0.66561352    -0.06000
C1650       C  0.26203355  0.53795639  0.66227741    -0.00100
C1651       C  0.27582611  0.51550114  0.65958970    -0.08600
C1652       C  0.31211497  0.53010598  0.65780655    -0.06000
C1653       C  0.33465647  0.56612099  0.65812700    -0.00100
C1654       C  0.32094253  0.58827083  0.66335554    -0.08500
C1655       C  0.34395092  0.62730354  0.66598220     0.61800
H1656       H  0.27402276  0.59046589  0.66805109     0.12500
H1657       H  0.32296355  0.51348115  0.65417098     0.12500
C1658       C  0.25130530  0.97648668  0.65695381     0.62100
F1659       F  0.32609948  0.64262982  0.67726598    -0.23100
F1660       F  0.35592329  0.64116382  0.63875520    -0.20400
F1661       F  0.37174362  0.63543482  0.68451923    -0.20100
F1662       F  0.23368763  0.96726586  0.63043741    -0.20200
F1663       F  0.22773113  0.96545511  0.67946897    -0.20500
F1664       F  0.26990053  0.95937808  0.65916252    -0.23200
C1665       C  0.06799935  0.56498894  0.66720054    -0.06000
C1666       C  0.09446636  0.57896647  0.64667812    -0.00100
C1667       C  0.09586019  0.60350012  0.62656400    -0.08600
C1668       C  0.06939362  0.61187221  0.62664996    -0.06000
C1669       C  0.04147703  0.59659833  0.64612141    -0.00100
C1670       C  0.04145897  0.57347316  0.66761914    -0.08500
C1671       C  0.51509901  0.55910777  0.69220748     0.61800
H1672       H  0.06764499  0.54622188  0.68225274     0.12500
H1673       H  0.07006857  0.63006362  0.61081666     0.12500
C1674       C  0.12506928  0.62044601  0.60477859     0.62100
F1675       F  0.48263755  0.53862503  0.67960491    -0.23100
F1676       F  0.51540676  0.58517900  0.70898330    -0.20400
F1677       F  0.52128792  0.53848987  0.71087104    -0.20100
F1678       F  0.12366586  0.59576743  0.58550209    -0.20200
F1679       F  0.15657587  0.63617922  0.61956795    -0.20500
F1680       F  0.12311043  0.64551458  0.58864026    -0.23200
O1681       O  0.88301555  0.10264658  0.13060676    -0.85600
O1682       O  0.92758550  0.15548937  0.09722522    -0.82600
C1683       C  0.94594098  0.18087758  0.11458877     0.97900
O1684       O  0.97032172  0.18195497  0.12924756    -0.82600
O1685       O  0.99649299  0.15690637  0.16854641    -0.85300
C1686       C  0.97380360  0.14626953  0.18845875     1.02400
O1687       O  0.94418279  0.12054482  0.18336772    -0.78000
O1688       O  0.88751809  0.06461487  0.15647556    -0.78200
C1689       C  0.87031816  0.07869815  0.14866714     1.02400
O1690       O  0.89707215  0.05254956  0.10007526    -0.85600
O1691       O  0.94376451  0.10658467  0.06753303    -0.82600
C1692       C  0.97181720  0.13233934  0.06030384     0.97900
O1693       O  0.99044801  0.15462028  0.07987080    -0.82600
O1694       O  0.51326517  0.12356074  0.12189838    -0.85300
C1695       C  0.51327806  0.10610437  0.14352624     1.02400
O1696       O  0.98917496  0.09687358  0.16176228    -0.78100
O1697       O  0.93520556  0.04923216  0.12879957    -0.78200
C1698       C  0.91189775  0.03618887  0.10939723     1.02400
Cr1699     Cr  0.91529240  0.10498682  0.10059735     1.93700
Cr1700     Cr  0.98956216  0.15138726  0.12453583     1.93200
Cr1701     Cr  0.93961481  0.08509030  0.15555158     1.39100
O1702       O  0.94818433  0.11381489  0.12649207    -1.23300
O1703       O  0.88260329  0.27162960  0.11575776    -0.85600
O1704       O  0.82607049  0.25772271  0.08425098    -0.82600
C1705       C  0.80489196  0.24879724  0.10522170     0.97900
O1706       O  0.80590063  0.27163236  0.12216113    -0.82600
O1707       O  0.83222960  0.33251858  0.15479158    -0.85300
C1708       C  0.85039890  0.32984053  0.17510791     1.02400
O1709       O  0.87655319  0.32758025  0.16858747    -0.78000
O1710       O  0.92453654  0.31851949  0.13632715    -0.78200
C1711       C  0.91070841  0.28641414  0.12958830     1.02400
O1712       O  0.92826914  0.32993830  0.08023911    -0.85600
O1713       O  0.86795036  0.32013072  0.05180184    -0.82600
C1714       C  0.83748362  0.31359678  0.04684095     0.97900
O1715       O  0.81722952  0.30842228  0.06809110    -0.82600
O1716       O  0.84915224  0.36923907  0.10005770    -0.85300
C1717       C  0.87254959  0.39377980  0.11488974     1.02400
O1718       O  0.89004168  0.38793682  0.13392715    -0.78100
O1719       O  0.93240046  0.37595673  0.10073995    -0.78200
C1720       C  0.94597256  0.36209983  0.08636668     1.02400
Cr1721     Cr  0.87585752  0.29688792  0.08445456     1.93700
Cr1722     Cr  0.82880966  0.32058491  0.11127272     1.93200
Cr1723     Cr  0.90341629  0.35044991  0.13359263     1.39100
O1724       O  0.86932881  0.32271258  0.10986116    -1.23300
O1725       O  0.71142945  0.04024933  0.17536155    -0.85600
O1726       O  0.71251267  0.08942875  0.14114799    -0.82600
C1727       C  0.70629543  0.10309453  0.11992322     0.97900
O1728       O  0.67799779  0.08665162  0.10581183    -0.82600
O1729       O  0.67735064  0.03071523  0.08068992    -0.85300
C1730       C  0.67026565  0.00057049  0.07408725     1.02400
O1731       O  0.65760066  0.47795750  0.09312409    -0.78000
O1732       O  0.70604124  0.00531888  0.13908917    -0.78200
C1733       C  0.72424492  0.02649030  0.15902581     1.02400
O1734       O  0.64163125  0.02125966  0.19244741    -0.85600
O1735       O  0.64452020  0.07472020  0.15974254    -0.82600
C1736       C  0.61698843  0.06435230  0.14446532     0.97900
O1737       O  0.60868167  0.04161235  0.12483362    -0.82600
O1738       O  0.60431731  0.48663393  0.09468003    -0.85300
C1739       C  0.58865560  0.46029935  0.11092069     1.02400
O1740       O  0.60335697  0.45857523  0.13414156    -0.78100
O1741       O  0.65217339  0.47995790  0.18128571    -0.78200
C1742       C  0.64400054  0.49571180  0.20001280     1.02400
Cr1743     Cr  0.67585980  0.05404111  0.16510659     1.93700
Cr1744     Cr  0.64334242  0.03548140  0.10386857     1.93200
Cr1745     Cr  0.65483257  0.48349529  0.13691939     1.39100
O1746       O  0.65766539  0.02423640  0.13569931    -1.23300
O1747       O  0.76729704  0.32232581  0.32503006    -0.85600
O1748       O  0.76713123  0.37055322  0.36147714    -0.82600
C1749       C  0.77368824  0.39087817  0.38285543     0.97900
O1750       O  0.80294749  0.40404046  0.39539395    -0.82600
O1751       O  0.80230430  0.34826718  0.42147373    -0.85300
C1752       C  0.80783277  0.32387018  0.42660236     1.02400
O1753       O  0.81973908  0.31310828  0.40650493    -0.78000
O1754       O  0.77306852  0.29238648  0.36016281    -0.78200
C1755       C  0.75501167  0.29500670  0.34009581     1.02400
O1756       O  0.83665405  0.37275005  0.30805959    -0.85600
O1757       O  0.83480249  0.42311324  0.34176371    -0.82600
C1758       C  0.86378954  0.43923194  0.35516073     0.97900
O1759       O  0.87131761  0.42522204  0.37536851    -0.82600
O1760       O  0.87353472  0.37527399  0.40668329    -0.85300
C1761       C  0.88987907  0.36583165  0.39007591     1.02400
O1762       O  0.87562653  0.34870126  0.36683610    -0.78100
O1763       O  0.82797497  0.32152941  0.31885249    -0.78200
C1764       C  0.83569521  0.34519273  0.30029712     1.02400
Cr1765     Cr  0.80297917  0.37143068  0.33626994     1.93700
Cr1766     Cr  0.83618412  0.38609499  0.39725064     1.93200
Cr1767     Cr  0.82400401  0.32171504  0.36307828     1.39100
O1768       O  0.82123373  0.35984664  0.36533574    -1.23300
O1769       O  0.59249893  0.37914649  0.39366152    -0.85600
O1770       O  0.64984424  0.42328484  0.42162930    -0.82600
C1771       C  0.67048290  0.43043274  0.40041996     0.97900
O1772       O  0.67139183  0.44997750  0.38023855    -0.82600
O1773       O  0.64856629  0.48327400  0.34229001    -0.85300
C1774       C  0.63018717  0.46008656  0.32331455     1.02400
O1775       O  0.60423145  0.43259426  0.33155475    -0.78000
O1776       O  0.55301229  0.38168560  0.36729757    -0.78200
C1777       C  0.56493293  0.36403051  0.37947367     1.02400
O1778       O  0.55017024  0.40156121  0.42243800    -0.85600
O1779       O  0.61163200  0.45391737  0.44728710    -0.82600
C1780       C  0.64322162  0.47539538  0.45123567     0.97900
O1781       O  0.66361793  0.48542148  0.42969522    -0.82600
O1782       O  0.63403046  0.01164266  0.39335364    -0.85300
C1783       C  0.61162472  0.01184001  0.37659921     1.02400
O1784       O  0.59347261  0.48669049  0.35822952    -0.78100
O1785       O  0.54765146  0.43877063  0.39366581    -0.78200
C1786       C  0.53365907  0.41539267  0.41202757     1.02400
Cr1787     Cr  0.60144566  0.41658904  0.41958097     1.93700
Cr1788     Cr  0.65166737  0.48031878  0.38635961     1.93200
Cr1789     Cr  0.57697424  0.43535023  0.36410034     1.39100
O1790       O  0.60992627  0.44405129  0.38990763    -1.23300
O1791       O  0.59825730  0.20931968  0.36348700    -0.85600
O1792       O  0.55475070  0.21788331  0.39916907    -0.82600
C1793       C  0.53521979  0.22366559  0.38239079     0.97900
O1794       O  0.51095943  0.19955669  0.36821860    -0.82600
O1795       O  0.98307000  0.14737840  0.33038178    -0.85300
C1796       C  0.50426686  0.15753947  0.31016533     1.02400
O1797       O  0.53405582  0.16143057  0.31365349    -0.78000
O1798       O  0.59286825  0.16537122  0.33834277    -0.78200
C1799       C  0.61025123  0.19709471  0.34531604     1.02400
O1800       O  0.58834083  0.14793946  0.39459407    -0.85600
O1801       O  0.54256221  0.15586949  0.43040492    -0.82600
C1802       C  0.01422524  0.15360345  0.43751116     0.97900
O1803       O  0.99427790  0.15544901  0.41845887    -0.82600
O1804       O  0.97065422  0.10056396  0.37859870    -0.85300
C1805       C  0.96889473  0.08249563  0.35671811     1.02400
O1806       O  0.99166742  0.09547257  0.33712182    -0.78100
O1807       O  0.54795001  0.10376378  0.36909368    -0.78200
C1808       C  0.57453756  0.11667426  0.38514063     1.02400
Cr1809     Cr  0.56846830  0.18079546  0.39537989     1.93700
Cr1810     Cr  0.99256146  0.15099903  0.37403590     1.93200
Cr1811     Cr  0.54108568  0.13294642  0.34194395     1.39100
O1812       O  0.53412727  0.15471734  0.37105355    -1.23300
C1813       C  0.54236370  0.30738264  0.35368951    -0.06000
C1814       C  0.54772636  0.32575801  0.37995919    -0.00100
C1815       C  0.54543787  0.30885343  0.40697940    -0.08600
C1816       C  0.54237425  0.27608777  0.40645824    -0.06000
C1817       C  0.53888572  0.25843344  0.38033090    -0.00100
C1818       C  0.53672177  0.27326778  0.35340620    -0.08500
C1819       C  0.52896881  0.25361461  0.32446992     0.61800
H1820       H  0.54400370  0.32043597  0.33340488     0.12500
H1821       H  0.54235250  0.26367527  0.42672566     0.12500
C1822       C  0.54594476  0.32483191  0.43666774     0.62100
F1823       F  0.53328188  0.27460484  0.30090643    -0.23100
F1824       F  0.49497478  0.22672560  0.32396882    -0.20400
F1825       F  0.55079820  0.24036582  0.32083816    -0.20100
F1826       F  0.52248915  0.33634291  0.43643095    -0.20200
F1827       F  0.57867904  0.35196212  0.44352212    -0.18700
F1828       F  0.53639670  0.30097401  0.45888428    -0.23200
C1829       C  0.59009190  0.04397479  0.40535388    -0.06000
C1830       C  0.60522438  0.04112201  0.37941603    -0.00100
C1831       C  0.61571642  0.06708936  0.35812751    -0.08600
C1832       C  0.60892048  0.09427873  0.36284403    -0.06000
C1833       C  0.59140942  0.09571618  0.38776342    -0.00100
C1834       C  0.58199404  0.07039942  0.40949548    -0.08500
C1835       C  0.56201907  0.07053736  0.43608636     0.61800
H1836       H  0.58329104  0.02440648  0.42179865     0.12500
H1837       H  0.61514135  0.11345041  0.34608868     0.12500
C1838       C  0.63387306  0.06592371  0.33064550     0.62100
F1839       F  0.55780188  0.04545557  0.45586708    -0.23100
F1840       F  0.52952538  0.06425328  0.42750226    -0.20400
F1841       F  0.57967271  0.10247318  0.45005890    -0.20100
F1842       F  0.61191828  0.53693582  0.31445187    -0.20200
F1843       F  0.66373342  0.06550445  0.33822539    -0.20500
F1844       F  0.64309056  0.09437847  0.31321366    -0.23200
C1845       C  0.87968998  0.50030055  0.35875794    -0.06000
C1846       C  0.88845302  0.47580062  0.34944405    -0.00100
C1847       C  0.92240069  0.48665810  0.33992573    -0.08600
C1848       C  0.94801048  0.02219699  0.34107812    -0.06000
C1849       C  0.94019027  0.04641945  0.35325796    -0.00100
C1850       C  0.90546486  0.03576600  0.36092754    -0.08500
C1851       C  0.89488075  0.06084271  0.37312165     0.61800
H1852       H  0.85332364  0.49122686  0.36540054     0.12500
H1853       H  0.97440699  0.03085373  0.33457061     0.12500
C1854       C  0.93219980  0.46086518  0.32823933     0.62100
F1855       F  0.85919479  0.04579334  0.37464960    -0.23100
F1856       F  0.90685933  0.08948490  0.35550873    -0.20400
F1857       F  0.90846873  0.07134147  0.40104720    -0.20100
F1858       F  0.96458479  0.47725622  0.31555679    -0.20200
F1859       F  0.90823844  0.43972344  0.30721710    -0.20500
F1860       F  0.93277664  0.44071619  0.35075600    -0.23200
C1861       C  0.67029322  0.20830015  0.34198761    -0.06000
C1862       C  0.64645996  0.21921142  0.33572843    -0.00100
C1863       C  0.65868510  0.25299964  0.32512627    -0.08600
C1864       C  0.69458576  0.27638695  0.32507850    -0.06000
C1865       C  0.71849750  0.26686033  0.33500168    -0.00100
C1866       C  0.70635122  0.23152955  0.34149860    -0.08500
C1867       C  0.73091924  0.21820535  0.34834478     0.61800
H1868       H  0.66050815  0.18205631  0.34939070     0.12500
H1869       H  0.70398570  0.30300329  0.31900865     0.12500
C1870       C  0.63386158  0.26439959  0.31425834     0.62100
F1871       F  0.71418362  0.18241790  0.34648155    -0.23100
F1872       F  0.74428402  0.22814608  0.37639187    -0.20400
F1873       F  0.75774934  0.23120529  0.32855925    -0.20100
F1874       F  0.61652830  0.26821165  0.33756098    -0.20200
F1875       F  0.61020199  0.23986887  0.29481355    -0.20500
F1876       F  0.65100089  0.29568098  0.29992025    -0.23200
C1877       C  0.72691860  0.43650685  0.41369151    -0.06000
C1878       C  0.69469533  0.41718228  0.39960118    -0.00100
C1879       C  0.68741399  0.38756761  0.38286159    -0.08600
C1880       C  0.71366810  0.37947971  0.37918968    -0.06000
C1881       C  0.74694993  0.39981695  0.39172438    -0.00100
C1882       C  0.75333411  0.42818980  0.41045978    -0.08500
C1883       C  0.78755675  0.45015728  0.42666079     0.61800
H1884       H  0.73146890  0.45885312  0.42664008     0.12500
H1885       H  0.70819483  0.35694973  0.36611372     0.12500
C1886       C  0.65178987  0.36392011  0.36958969     0.62100
F1887       F  0.78721415  0.47558437  0.44394179    -0.23100
F1888       F  0.81404958  0.46643107  0.40693296    -0.20400
F1889       F  0.79425112  0.42951123  0.44476339    -0.20100
F1890       F  0.64139964  0.38264612  0.35263845    -0.20200
F1891       F  0.62859947  0.34797916  0.39188939    -0.20500
F1892       F  0.65120563  0.33831406  0.35197851    -0.23200
C1893       C  0.94655563  0.40921303  0.41100502    -0.06000
C1894       C  0.92586409  0.37585317  0.39890643    -0.00100
C1895       C  0.93924160  0.35303349  0.39779868    -0.08600
C1896       C  0.97399118  0.36559375  0.40658452    -0.06000
C1897       C  0.49615536  0.40085513  0.41628160    -0.00100
C1898       C  0.98089609  0.42148388  0.42018693    -0.08500
C1899       C  0.50279674  0.45990682  0.43054708     0.61800
H1900       H  0.93598727  0.42635952  0.41278174     0.12500
H1901       H  0.98554646  0.34962183  0.40300779     0.12500
C1902       C  0.91720100  0.31577428  0.38734520     0.62100
F1903       F  0.48383651  0.46591194  0.45118974    -0.23100
F1904       F  0.50963536  0.48223185  0.40752794    -0.20400
F1905       F  0.53375189  0.46696035  0.44367825    -0.20100
F1906       F  0.90928517  0.31484038  0.35796217    -0.20200
F1907       F  0.88685955  0.29959338  0.40307991    -0.20500
F1908       F  0.93418534  0.29724289  0.39104249    -0.23200
C1909       C  0.65397344  0.00270335  0.28374116    -0.06000
C1910       C  0.63630766  0.46756936  0.29137250    -0.00100
C1911       C  0.62372576  0.44172068  0.26884780    -0.08600
C1912       C  0.62701510  0.45202877  0.23935782    -0.06000
C1913       C  0.64149727  0.48690650  0.23162972    -0.00100
C1914       C  0.65628532  0.01308533  0.25452704    -0.08500
C1915       C  0.67430460  0.05169198  0.24822824     0.61800
H1916       H  0.66438305  0.02222820  0.30091346     0.12500
H1917       H  0.61722745  0.43266907  0.22198465     0.12500
C1918       C  0.60689230  0.40341866  0.27549979     0.62100
F1919       F  0.68930817  0.07180972  0.27311038    -0.23100
F1920       F  0.65056693  0.06016534  0.23728959    -0.20400
F1921       F  0.70040847  0.06034137  0.22829450    -0.20100
F1922       F  0.57422563  0.39171925  0.28675221    -0.20200
F1923       F  0.62705613  0.39794035  0.29543669    -0.20500
F1924       F  0.60327649  0.38389274  0.25066027    -0.23200
C1925       C  0.68535232  0.02040377  0.02321504    -0.06000
C1926       C  0.67040667  0.49276552  0.04215223    -0.00100
C1927       C  0.65208507  0.45854639  0.03023620    -0.08600
C1928       C  0.64601047  0.45444368  0.49975492    -0.06000
C1929       C  0.65647273  0.48298101  0.48147444    -0.00100
C1930       C  0.67734591  0.01664156  0.49326843    -0.08500
C1931       C  0.68898956  0.04799235  0.47403034     0.61800
H1932       H  0.70078568  0.04636944  0.03212025     0.12500
H1933       H  0.63087601  0.42874264  0.49017306     0.12500
C1934       C  0.63736759  0.42626682  0.04885661     0.62100
F1935       F  0.70681534  0.07871506  0.48983559    -0.23100
F1936       F  0.65907185  0.54690559  0.46136395    -0.20400
F1937       F  0.71066560  0.04804137  0.45258452    -0.20100
F1938       F  0.61045930  0.42373296  0.06544114    -0.20200
F1939       F  0.66306162  0.42763409  0.06690884    -0.20500
F1940       F  0.62434211  0.39631210  0.03198057    -0.23200
C1941       C  0.80039390  0.31983795  0.00937516    -0.06000
C1942       C  0.82513986  0.31023795  0.01611780    -0.00100
C1943       C  0.83725418  0.29720791  0.99340231    -0.08600
C1944       C  0.83050601  0.30104076  0.46418349    -0.06000
C1945       C  0.80772343  0.31309677  0.45728105    -0.00100
C1946       C  0.79069859  0.31987300  0.48032482    -0.08500
C1947       C  0.76249830  0.32872287  0.47465056     0.61800
H1948       H  0.78997557  0.32811245  0.02697565     0.12500
H1949       H  0.84274642  0.29500628  0.44657371     0.12500
C1950       C  0.85982338  0.28118719  0.99926396     0.62100
F1951       F  0.74270366  0.32525600  0.99895095    -0.23100
F1952       F  0.74074279  0.30812678  0.45219326    -0.20400
F1953       F  0.77724861  0.36317606  0.46730343    -0.20100
F1954       F  0.84570568  0.25727225  0.02138868    -0.20200
F1955       F  0.89307943  0.30663335  0.00710431    -0.20500
F1956       F  0.86943341  0.27068382  0.47379921    -0.23200
C1957       C  0.82734293  0.35504795  0.24843271    -0.06000
C1958       C  0.83932906  0.33958009  0.26851613    -0.00100
C1959       C  0.85313077  0.31925406  0.25761479    -0.08600
C1960       C  0.85466172  0.31556510  0.22702421    -0.06000
C1961       C  0.84317999  0.33156033  0.20688753    -0.00100
C1962       C  0.82913544  0.35169236  0.21794405    -0.08500
C1963       C  0.81741796  0.37097441  0.19801000     0.61800
H1964       H  0.81631786  0.37004910  0.25693855     0.12500
H1965       H  0.86539329  0.30029534  0.21851472     0.12500
C1966       C  0.86744219  0.30261034  0.27795260     0.62100
F1967       F  0.80658500  0.39053373  0.21349848    -0.23100
F1968       F  0.78985589  0.34760070  0.18067153    -0.20400
F1969       F  0.84472005  0.39330711  0.18072235    -0.20100
F1970       F  0.84080166  0.27674228  0.29365670    -0.20200
F1971       F  0.89154500  0.32734751  0.29702521    -0.20500
F1972       F  0.88369673  0.28791240  0.26277399    -0.23200
C1973       C  0.76957405  0.18892086  0.08502874    -0.06000
C1974       C  0.77859126  0.21164077  0.10931494    -0.00100
C1975       C  0.76340331  0.19804161  0.13687709    -0.08600
C1976       C  0.73972660  0.16244978  0.13876807    -0.06000
C1977       C  0.73073223  0.14004155  0.11455757    -0.00100
C1978       C  0.74590246  0.15315717  0.08721393    -0.08500
C1979       C  0.73837745  0.12929303  0.06098486     0.61800
H1980       H  0.78138490  0.19938083  0.06418853     0.12500
H1981       H  0.72764014  0.15158695  0.15945626     0.12500
C1982       C  0.77225181  0.22026637  0.16455495     0.62100
F1983       F  0.75748310  0.14702844  0.03691521    -0.23100
F1984       F  0.70362988  0.11351181  0.05335808    -0.20400
F1985       F  0.74670720  0.10420148  0.06781554    -0.20100
F1986       F  0.76027469  0.24331548  0.16190625    -0.20200
F1987       F  0.80776131  0.23818726  0.16935053    -0.20500
F1988       F  0.75712847  0.20059461  0.18907555    -0.23200
C1989       C  0.53501960  0.43936044  0.08043461    -0.06000
C1990       C  0.55336284  0.43160329  0.10149986    -0.00100
C1991       C  0.53783777  0.39697993  0.11180357    -0.08600
C1992       C  0.00355860  0.37318474  0.10171730    -0.06000
C1993       C  0.98413311  0.38249691  0.08357100    -0.00100
C1994       C  0.00049817  0.41576055  0.07118920    -0.08500
C1995       C  0.98162590  0.42534511  0.04870633     0.61800
H1996       H  0.54709366  0.46515299  0.07159317     0.12500
H1997       H  0.99053036  0.34761390  0.11105228     0.12500
C1998       C  0.55646963  0.38522430  0.13267271     0.62100
F1999       F  0.00329734  0.45734021  0.03661563    -0.23100
F2000       F  0.95419828  0.42645233  0.06135905    -0.20400
F2001       F  0.96902482  0.40083035  0.02637536    -0.20100
F2002       F  0.56088339  0.40116056  0.15967750    -0.20200
F2003       F  0.58841768  0.39337733  0.12159246    -0.20500
F2004       F  0.53795519  0.34977218  0.13677053    -0.23200
C2005       C  0.95449949  0.14658571  0.23879243    -0.06000
C2006       C  0.98215652  0.16005336  0.21899537    -0.00100
C2007       C  0.51664050  0.18169916  0.23096841    -0.08600
C2008       C  0.52174025  0.18333679  0.26140351    -0.06000
C2009       C  0.99466744  0.16446137  0.27985919    -0.00100
C2010       C  0.96000128  0.14760801  0.26910526    -0.08500
C2011       C  0.92887266  0.12805925  0.28869404     0.61800
H2012       H  0.92823817  0.13226152  0.23023560     0.12500
H2013       H  0.54781089  0.19799400  0.27027292     0.12500
C2014       C  0.54792267  0.20132309  0.21154550     0.62100
F2015       F  0.89776614  0.11561365  0.27354927    -0.23100
F2016       F  0.92952004  0.14974664  0.31076066    -0.20400
F2017       F  0.92950418  0.09998133  0.30049063    -0.20100
F2018       F  0.54132746  0.22017229  0.19126061    -0.20200
F2019       F  0.55527049  0.17833633  0.19735463    -0.20500
F2020       F  0.57718816  0.22440373  0.22747328    -0.23200
C2021       C  0.51729405  0.16241682  0.02197232    -0.06000
C2022       C  0.98223909  0.13659263  0.02849631    -0.00100
C2023       C  0.95956560  0.11546274  0.00511662    -0.08600
C2024       C  0.97090677  0.12222139  0.47599039    -0.06000
C2025       C  0.00440194  0.14832583  0.46908787    -0.00100
C2026       C  0.52791438  0.16777712  0.49282099    -0.08500
C2027       C  0.56517429  0.19542334  0.48702975     0.61800
H2028       H  0.53522467  0.17682903  0.03963534     0.12500
H2029       H  0.95396651  0.10698937  0.45804767     0.12500
C2030       C  0.92315185  0.08519553  0.01010304     0.62100
F2031       F  0.58195139  0.21412397  0.51211663    -0.23100
F2032       F  0.56587113  0.21845868  0.46664190    -0.20400
F2033       F  0.58340412  0.18013485  0.47665145    -0.20100
F2034       F  0.90317813  0.09679443  0.02365888    -0.20200
F2035       F  0.92484353  0.06058533  0.02709933    -0.20500
F2036       F  0.90636162  0.06893170  0.98419333    -0.23200
C2037       C  0.94449329  0.26482109  0.10507529    -0.06000
C2038       C  0.92913020  0.26668534  0.13132574    -0.00100
C2039       C  0.92107521  0.24105712  0.15262063    -0.08600
C2040       C  0.92659369  0.21326345  0.14612730    -0.06000
C2041       C  0.93932030  0.21003500  0.11890032    -0.00100
C2042       C  0.94969005  0.23685746  0.09848675    -0.08500
C2043       C  0.96594006  0.23566947  0.06983726     0.61800
H2044       H  0.95005598  0.28419177  0.08874396     0.12500
H2045       H  0.92053723  0.19366539  0.16237128     0.12500
C2046       C  0.90614471  0.24164045  0.18213657     0.62100
F2047       F  0.97455703  0.26444212  0.05301278    -0.23100
F2048       F  0.94291492  0.20649521  0.05391109    -0.20400
F2049       F  0.49747800  0.23586087  0.07582501    -0.20100
F2050       F  0.87293459  0.21361329  0.18396531    -0.20200
F2051       F  0.90490050  0.27159104  0.18701502    -0.20500
F2052       F  0.92651859  0.23939378  0.20399735    -0.23200
C2053       C  0.91507282  0.45486642  0.10484456    -0.06000
C2054       C  0.88033924  0.42976314  0.10925085    -0.00100
C2055       C  0.85443250  0.43941169  0.10655050    -0.08600
C2056       C  0.86499459  0.47483384  0.10344069    -0.06000
C2057       C  0.90007727  0.50004713  0.10086759    -0.00100
C2058       C  0.92503116  0.48934135  0.09881865    -0.08500
C2059       C  0.96337372  0.01352871  0.09067555     0.61800
H2060       H  0.93467649  0.44731704  0.10541978     0.12500
H2061       H  0.84614926  0.48331891  0.10464587     0.12500
C2062       C  0.81601074  0.41294003  0.10790300     0.62100
F2063       F  0.97211036  0.99883204  0.06796788    -0.23100
F2064       F  0.98468483  0.01829454  0.11448265    -0.20400
F2065       F  0.96934882  0.04546849  0.08143889    -0.20100
F2066       F  0.80899427  0.39395512  0.13312615    -0.20200
F2067       F  0.80636012  0.39086434  0.08390704    -0.20500
F2068       F  0.79579970  0.42843056  0.10774334    -0.23200
C2069       C  0.78464845  0.07316393  0.16611472    -0.06000
C2070       C  0.76158747  0.03761975  0.16203455    -0.00100
C2071       C  0.77499711  0.01491648  0.15871363    -0.08600
C2072       C  0.81122458  0.02924054  0.15686297    -0.06000
C2073       C  0.83399492  0.06520645  0.15788393    -0.00100
C2074       C  0.82066839  0.08747784  0.16396863    -0.08500
C2075       C  0.84406457  0.12635871  0.16756321     0.61800
H2076       H  0.77410060  0.09015274  0.16908948     0.12500
H2077       H  0.82182782  0.01251321  0.15261920     0.12500
C2078       C  0.75159687  0.47709284  0.15747460     0.62100
F2079       F  0.82658626  0.14158927  0.17979077    -0.23100
F2080       F  0.85605910  0.14113932  0.14061775    -0.20400
F2081       F  0.87184054  0.13350186  0.18579449    -0.20100
F2082       F  0.73382200  0.46715981  0.13104038    -0.20200
F2083       F  0.72814614  0.46657800  0.18006700    -0.20500
F2084       F  0.77032778  0.46017533  0.16018980    -0.23200
C2085       C  0.56843044  0.06621676  0.16849725    -0.06000
C2086       C  0.59470795  0.07989581  0.14778095    -0.00100
C2087       C  0.59585040  0.10409082  0.12741590    -0.08600
C2088       C  0.56940554  0.11250252  0.12752303    -0.06000
C2089       C  0.54165416  0.09750330  0.14718855    -0.00100
C2090       C  0.54184341  0.07466116  0.16886942    -0.08500
C2091       C  0.01399615  0.05890912  0.19195041     0.61800
H2092       H  0.56820866  0.04764940  0.18370619     0.12500
H2093       H  0.56993686  0.13046321  0.11151708     0.12500
C2094       C  0.62474949  0.12058049  0.10529993     0.62100
F2095       F  0.98170418  0.03823200  0.17911811    -0.23100
F2096       F  0.01388947  0.08485311  0.20860165    -0.20400
F2097       F  0.02017220  0.03842335  0.21078569    -0.20100
F2098       F  0.62308920  0.09551669  0.08634360    -0.20200
F2099       F  0.65646048  0.13661322  0.11977551    -0.20500
F2100       F  0.62254936  0.14528862  0.08882495    -0.23200
O2101       O  0.88291008  0.10255737  0.63087895    -0.85600
O2102       O  0.92737402  0.15512564  0.59721563    -0.82600
C2103       C  0.94576500  0.18054824  0.61453911     0.97900
O2104       O  0.97016692  0.18165302  0.62918029    -0.82600
O2105       O  0.99651474  0.15679468  0.66848282    -0.85300
C2106       C  0.97381220  0.14622535  0.68838967     1.02400
O2107       O  0.94418832  0.12053679  0.68330190    -0.78000
O2108       O  0.88748169  0.06454763  0.65673852    -0.78200
C2109       C  0.87030008  0.07867939  0.64901136     1.02400
O2110       O  0.89666912  0.05210903  0.60046002    -0.85600
O2111       O  0.94331326  0.10602134  0.56759986    -0.82600
C2112       C  0.97140834  0.13172109  0.56032540     0.97900
O2113       O  0.99005375  0.15410475  0.57982013    -0.82600
O2114       O  0.51227857  0.12273532  0.62160140    -0.85300
C2115       C  0.51250408  0.10545566  0.64328245     1.02400
O2116       O  0.98914515  0.09677035  0.66172848    -0.78100
O2117       O  0.93502061  0.04896038  0.62902781    -0.78200
C2118       C  0.91151247  0.03576381  0.60980754     1.02400
Cr2119     Cr  0.91499538  0.10461678  0.60075482     1.93700
Cr2120     Cr  0.98938679  0.15108848  0.62446401     1.93200
Cr2121     Cr  0.93955421  0.08495671  0.65566303     1.39100
O2122       O  0.94801225  0.11353597  0.62653942    -1.23300
O2123       O  0.88280089  0.27159238  0.61617190    -0.85600
O2124       O  0.82657051  0.25781335  0.58427769    -0.82600
C2125       C  0.80525422  0.24893498  0.60515114     0.97900
O2126       O  0.80635136  0.27179221  0.62210569    -0.82600
O2127       O  0.83259973  0.33272843  0.65466111    -0.85300
C2128       C  0.85070292  0.33007608  0.67506044     1.02400
O2129       O  0.87688413  0.32780733  0.66865831    -0.78000
O2130       O  0.92487326  0.31845983  0.63664455    -0.78200
C2131       C  0.91094942  0.28632765  0.62993066     1.02400
O2132       O  0.92892351  0.32979681  0.58069763    -0.85600
O2133       O  0.86902432  0.32040900  0.55208071    -0.82600
C2134       C  0.83864710  0.31392444  0.54684318     0.97900
O2135       O  0.81811952  0.30853679  0.56792924    -0.82600
O2136       O  0.84980466  0.36925760  0.59980809    -0.85300
C2137       C  0.87318601  0.39383203  0.61459499     1.02400
O2138       O  0.89059233  0.38806802  0.63377924    -0.78100
O2139       O  0.93304591  0.37593858  0.60088642    -0.78200
C2140       C  0.94665297  0.36198505  0.58669991     1.02400
Cr2141     Cr  0.87645207  0.29690008  0.58471972     1.93700
Cr2142     Cr  0.82937870  0.32070190  0.61115372     1.93200
Cr2143     Cr  0.90390169  0.35053690  0.63371391     1.39100
O2144       O  0.86987054  0.32277585  0.60997814    -1.23300
O2145       O  0.71159504  0.04111895  0.67525174    -0.85600
O2146       O  0.71230916  0.08982420  0.64070956    -0.82600
C2147       C  0.70588271  0.10342021  0.61956594     0.97900
O2148       O  0.67746649  0.08689791  0.60562858    -0.82600
O2149       O  0.67713789  0.03103042  0.58078678    -0.85300
C2150       C  0.67017220  0.00092890  0.57419094     1.02400
O2151       O  0.65831496  0.47765653  0.59300156    -0.78000
O2152       O  0.70605868  0.00603834  0.63908743    -0.78200
C2153       C  0.72433988  0.02723546  0.65897753     1.02400
O2154       O  0.64187244  0.02213491  0.69250993    -0.85600
O2155       O  0.64434232  0.07514835  0.65947876    -0.82600
C2156       C  0.61666128  0.06449064  0.64434235     0.97900
O2157       O  0.60829847  0.04159948  0.62484692    -0.82600
O2158       O  0.60496344  0.48622749  0.59440619    -0.85300
C2159       C  0.58931436  0.46007772  0.61082809     1.02400
O2160       O  0.60405228  0.45859820  0.63410575    -0.78100
O2161       O  0.65281498  0.48042073  0.68120677    -0.78200
C2162       C  0.64493728  0.49654601  0.69982820     1.02400
Cr2163     Cr  0.67585343  0.05467767  0.66493329     1.93700
Cr2164     Cr  0.64300811  0.03563791  0.60386320     1.93200
Cr2165     Cr  0.65552807  0.48348630  0.63679994     1.39100
O2166       O  0.65749412  0.02462971  0.63570565    -1.23300
O2167       O  0.76743602  0.32235133  0.82502058    -0.85600
O2168       O  0.76711452  0.37068552  0.86119772    -0.82600
C2169       C  0.77357662  0.39093956  0.88261234     0.97900
O2170       O  0.80284554  0.40421749  0.89514615    -0.82600
O2171       O  0.80222157  0.34857258  0.92140897    -0.85300
C2172       C  0.80763257  0.32411593  0.92662218     1.02400
O2173       O  0.81985279  0.31350002  0.90664963    -0.78000
O2174       O  0.77326551  0.29260751  0.86030763    -0.78200
C2175       C  0.75520257  0.29512247  0.84020125     1.02400
O2176       O  0.83678452  0.37286447  0.80799698    -0.85600
O2177       O  0.83488243  0.42313751  0.84139479    -0.82600
C2178       C  0.86393983  0.43914196  0.85467615     0.97900
O2179       O  0.87122137  0.42534625  0.87522225    -0.82600
O2180       O  0.87352929  0.37561256  0.90666921    -0.85300
C2181       C  0.88993839  0.36633099  0.88997386     1.02400
O2182       O  0.87568248  0.34917020  0.86676687    -0.78100
O2183       O  0.82806169  0.32166817  0.81885604    -0.78200
C2184       C  0.83579437  0.34530521  0.80025579     1.02400
Cr2185     Cr  0.80302742  0.37150982  0.83610036     1.93700
Cr2186     Cr  0.83611739  0.38634146  0.89715048     1.93200
Cr2187     Cr  0.82413131  0.32199916  0.86313371     1.39100
O2188       O  0.82123782  0.36004265  0.86527466    -1.23300
O2189       O  0.59217841  0.37908023  0.89320960    -0.85600
O2190       O  0.64940130  0.42279017  0.92149786    -0.82600
C2191       C  0.67001826  0.42984552  0.90029407     0.97900
O2192       O  0.67101431  0.44940223  0.88009629    -0.82600
O2193       O  0.64854784  0.48309043  0.84216004    -0.85300
C2194       C  0.62990310  0.46007001  0.82313548     1.02400
O2195       O  0.60392710  0.43262419  0.83141818    -0.78000
O2196       O  0.55260877  0.38185654  0.86718351    -0.78200
C2197       C  0.56451117  0.36408573  0.87916488     1.02400
O2198       O  0.54983857  0.40145825  0.92215659    -0.85600
O2199       O  0.61143760  0.45352456  0.94726700    -0.82600
C2200       C  0.64303780  0.47502104  0.95122508     0.97900
O2201       O  0.66348752  0.48498291  0.92969602    -0.82600
O2202       O  0.63378282  0.01164149  0.89351066    -0.85300
C2203       C  0.61127168  0.01184299  0.87688650     1.02400
O2204       O  0.59377255  0.48691021  0.85823861    -0.78100
O2205       O  0.54794613  0.43928325  0.89377218    -0.78200
C2206       C  0.53361782  0.41567106  0.91187703     1.02400
Cr2207     Cr  0.60112506  0.41631782  0.91937646     1.93700
Cr2208     Cr  0.65164433  0.48001515  0.88628762     1.93200
Cr2209     Cr  0.57690668  0.43554755  0.86405945     1.39100
O2210       O  0.60980491  0.44395411  0.88980889    -1.23300
O2211       O  0.59846176  0.20956838  0.86339260    -0.85600
O2212       O  0.55510158  0.21837185  0.89907793    -0.82600
C2213       C  0.53560642  0.22411657  0.88222742     0.97900
O2214       O  0.51145256  0.19998906  0.86797451    -0.82600
O2215       O  0.98251273  0.14668442  0.83028954    -0.85300
C2216       C  0.50472041  0.15745112  0.81008438     1.02400
O2217       O  0.53447432  0.16127244  0.81362186    -0.78000
O2218       O  0.59322981  0.16543591  0.83864509    -0.78200
C2219       C  0.61054033  0.19722532  0.84543131     1.02400
O2220       O  0.58878278  0.14847325  0.89480811    -0.85600
O2221       O  0.54304273  0.15649724  0.93039672    -0.82600
C2222       C  0.01421369  0.15392880  0.93737370     0.97900
O2223       O  0.99416981  0.15556435  0.91829664    -0.82600
O2224       O  0.97032251  0.10027013  0.87883095    -0.85300
C2225       C  0.96845568  0.08188947  0.85714890     1.02400
O2226       O  0.99101888  0.09470623  0.83736008    -0.78100
O2227       O  0.54822384  0.10404280  0.86967627    -0.78200
C2228       C  0.57483334  0.11706785  0.88569996     1.02400
Cr2229     Cr  0.56885097  0.18127910  0.89538178     1.93700
Cr2230     Cr  0.99220119  0.15067274  0.87391208     1.93200
Cr2231     Cr  0.54143002  0.13301459  0.84222234     1.39100
O2232       O  0.53449418  0.15504595  0.87112822    -1.23300
C2233       C  0.54279447  0.30773801  0.85333127    -0.06000
C2234       C  0.54721575  0.32584167  0.87959707    -0.00100
C2235       C  0.54452891  0.30886929  0.90666130    -0.08600
C2236       C  0.54178352  0.27621946  0.90623859    -0.06000
C2237       C  0.53917042  0.25883811  0.88012756    -0.00100
C2238       C  0.53761908  0.27381077  0.85309971    -0.08500
C2239       C  0.53089840  0.25446739  0.82410269     0.61800
H2240       H  0.54484082  0.32089489  0.83301977     0.12500
H2241       H  0.54130500  0.26366408  0.92654250     0.12500
C2242       C  0.54423794  0.32465478  0.93626502     0.62100
F2243       F  0.53654630  0.27584693  0.80053817    -0.23100
F2244       F  0.49679915  0.22786811  0.82268027    -0.20400
F2245       F  0.55247272  0.24081548  0.82132866    -0.20100
F2246       F  0.51976329  0.33485623  0.93580419    -0.20200
F2247       F  0.57639318  0.35268041  0.94316792    -0.18700
F2248       F  0.53552887  0.30107230  0.95861082    -0.23200
C2249       C  0.58814411  0.04286012  0.90520788    -0.06000
C2250       C  0.60489902  0.04114157  0.87990004    -0.00100
C2251       C  0.61726698  0.06835780  0.85964498    -0.08600
C2252       C  0.61066521  0.09565083  0.86461902    -0.06000
C2253       C  0.59150130  0.09596962  0.88874971    -0.00100
C2254       C  0.58017309  0.06935214  0.90950292    -0.08500
C2255       C  0.55852648  0.06837860  0.93525393     0.61800
H2256       H  0.58014503  0.02248052  0.92101635     0.12500
H2257       H  0.61823968  0.11573491  0.84850680     0.12500
C2258       C  0.63692250  0.06822402  0.83283142     0.62100
F2259       F  0.55212578  0.04177870  0.95409840    -0.23100
F2260       F  0.52700729  0.06358291  0.92532689    -0.20400
F2261       F  0.57582796  0.09932022  0.95074969    -0.20100
F2262       F  0.61177490  0.53616086  0.81443163    -0.20200
F2263       F  0.66602077  0.06683710  0.84133818    -0.20500
F2264       F  0.64761763  0.09762536  0.81629294    -0.23200
C2265       C  0.88002030  0.50007447  0.85799254    -0.06000
C2266       C  0.88878747  0.47555472  0.84878096    -0.00100
C2267       C  0.92297189  0.48627092  0.83992775    -0.08600
C2268       C  0.94776631  0.02139166  0.84202774    -0.06000
C2269       C  0.93991029  0.04559552  0.85422083    -0.00100
C2270       C  0.90529293  0.03468333  0.86249883    -0.08500
C2271       C  0.89455850  0.05972656  0.87448217     0.61800
H2272       H  0.85357654  0.49105473  0.86438815     0.12500
H2273       H  0.97406216  0.03019012  0.83512743     0.12500
C2274       C  0.93255845  0.46062277  0.82737685     0.62100
F2275       F  0.85890859  0.04423266  0.87689174    -0.23100
F2276       F  0.90545699  0.08762821  0.85612518    -0.20400
F2277       F  0.90903387  0.07138051  0.90200327    -0.20100
F2278       F  0.96682823  0.47678413  0.81879228    -0.20200
F2279       F  0.91177610  0.44413955  0.80316383    -0.20500
F2280       F  0.92786221  0.43615718  0.84788687    -0.23200
C2281       C  0.67056905  0.20843856  0.84226117    -0.06000
C2282       C  0.64674589  0.21933140  0.83590297    -0.00100
C2283       C  0.65897392  0.25315569  0.82538807    -0.08600
C2284       C  0.69485131  0.27649126  0.82525192    -0.06000
C2285       C  0.71874050  0.26696353  0.83518694    -0.00100
C2286       C  0.70661362  0.23168578  0.84186568    -0.08500
C2287       C  0.73115760  0.21847808  0.84922721     0.61800
H2288       H  0.66078678  0.18223665  0.84975450     0.12500
H2289       H  0.70424944  0.30311313  0.81920053     0.12500
C2290       C  0.63418252  0.26478152  0.81496180     0.62100
F2291       F  0.71455165  0.18269799  0.84736311    -0.23100
F2292       F  0.74397270  0.22843662  0.87742412    -0.20400
F2293       F  0.75837372  0.23156455  0.82982158    -0.20100
F2294       F  0.61748261  0.26890719  0.83859867    -0.20200
F2295       F  0.61002322  0.24026413  0.79579945    -0.20500
F2296       F  0.65123905  0.29597439  0.80048682    -0.23200
C2297       C  0.72645440  0.43610656  0.91357951    -0.06000
C2298       C  0.69422387  0.41662310  0.89956317    -0.00100
C2299       C  0.68700479  0.38700072  0.88288155    -0.08600
C2300       C  0.71336282  0.37905687  0.87918243    -0.06000
C2301       C  0.74669715  0.39963117  0.89157079    -0.00100
C2302       C  0.75300306  0.42801586  0.91025534    -0.08500
C2303       C  0.78731460  0.45031471  0.92623026     0.61800
H2304       H  0.73093141  0.45846335  0.92647651     0.12500
H2305       H  0.70796999  0.35652666  0.86614043     0.12500
C2306       C  0.65139253  0.36331485  0.86959955     0.62100
F2307       F  0.78685298  0.47569869  0.94348661    -0.23100
F2308       F  0.81358972  0.46665692  0.90631085    -0.20400
F2309       F  0.79442060  0.42996642  0.94433494    -0.20100
F2310       F  0.64112900  0.38195103  0.85237911    -0.20200
F2311       F  0.62809383  0.34759838  0.89187608    -0.20500
F2312       F  0.65081489  0.33754988  0.85224111    -0.23200
C2313       C  0.94679411  0.40998366  0.91038387    -0.06000
C2314       C  0.92597703  0.37648304  0.89861198    -0.00100
C2315       C  0.93935459  0.35367304  0.89743211    -0.08600
C2316       C  0.97410350  0.36622984  0.90614176    -0.06000
C2317       C  0.49607841  0.40127894  0.91578091    -0.00100
C2318       C  0.98120924  0.42230673  0.91936875    -0.08500
C2319       C  0.50286341  0.46066410  0.92906741     0.61800
H2320       H  0.93626929  0.42717900  0.91201333     0.12500
H2321       H  0.98561664  0.35021809  0.90258982     0.12500
C2322       C  0.91736000  0.31646363  0.88683525     0.62100
F2323       F  0.48365926  0.46740674  0.94891374    -0.23100
F2324       F  0.51045894  0.48253408  0.90558597    -0.20400
F2325       F  0.53341501  0.46765711  0.94294671    -0.20100
F2326       F  0.90948619  0.31571296  0.85745985    -0.20200
F2327       F  0.88700035  0.30014500  0.90254244    -0.20500
F2328       F  0.93438625  0.29795233  0.89037784    -0.23200
C2329       C  0.65390183  0.00350418  0.78382635    -0.06000
C2330       C  0.63583943  0.46767943  0.79114807    -0.00100
C2331       C  0.62236615  0.44195868  0.76847621    -0.08600
C2332       C  0.62622875  0.45253420  0.73903213    -0.06000
C2333       C  0.64180443  0.48753595  0.73143927    -0.00100
C2334       C  0.65639706  0.01396140  0.75461666    -0.08500
C2335       C  0.67455743  0.05258709  0.74835590     0.61800
H2336       H  0.66409336  0.02297105  0.80105053     0.12500
H2337       H  0.61601720  0.43330535  0.72154039     0.12500
C2338       C  0.60390525  0.40349966  0.77489658     0.62100
F2339       F  0.68944855  0.07264218  0.77329189    -0.23100
F2340       F  0.65098072  0.06119679  0.73727359    -0.20400
F2341       F  0.70077636  0.06118004  0.72854603    -0.20100
F2342       F  0.57180379  0.39332168  0.78674033    -0.20200
F2343       F  0.62353492  0.39652644  0.79423730    -0.20500
F2344       F  0.59863581  0.38376934  0.74983406    -0.23200
C2345       C  0.68501279  0.02090115  0.52336426    -0.06000
C2346       C  0.67121748  0.49249573  0.54200008    -0.00100
C2347       C  0.65259728  0.45835261  0.52999662    -0.08600
C2348       C  0.64571888  0.45444786  0.99996066    -0.06000
C2349       C  0.65618326  0.48284558  0.98151727    -0.00100
C2350       C  0.67782128  0.01613699  0.99308395    -0.08500
C2351       C  0.69045375  0.04748137  0.97366829     0.61800
H2352       H  0.70013615  0.04688820  0.53229534     0.12500
H2353       H  0.63077644  0.42868646  0.99045382     0.12500
C2354       C  0.63780163  0.42599449  0.54851084     0.62100
F2355       F  0.70883012  0.07821279  0.98937139    -0.23100
F2356       F  0.65888017  0.54653255  0.96057279    -0.20400
F2357       F  0.71200301  0.04670645  0.95249696    -0.20100
F2358       F  0.61105207  0.42356515  0.56525931    -0.20200
F2359       F  0.66350730  0.42713532  0.56640332    -0.20500
F2360       F  0.62454102  0.39609894  0.53152786    -0.23200
C2361       C  0.80085750  0.31899471  0.50938711    -0.06000
C2362       C  0.82672327  0.31086870  0.51601065    -0.00100
C2363       C  0.84029289  0.29957151  0.49309235    -0.08600
C2364       C  0.82802383  0.29917233  0.96439962    -0.06000
C2365       C  0.80669258  0.31289608  0.95731105    -0.00100
C2366       C  0.79030535  0.32068808  0.98027677    -0.08500
C2367       C  0.76281211  0.33049457  0.97451627     0.61800
H2368       H  0.78963034  0.32620599  0.52708543     0.12500
H2369       H  0.83950621  0.29202064  0.94690321     0.12500
C2370       C  0.86530989  0.28627817  0.49853535     0.62100
F2371       F  0.74242360  0.32316136  0.49916127    -0.23100
F2372       F  0.74091657  0.31034252  0.95194741    -0.20400
F2373       F  0.77837374  0.36504812  0.96731362    -0.20100
F2374       F  0.85281416  0.26180117  0.52032805    -0.20200
F2375       F  0.89764409  0.31343234  0.50657162    -0.20500
F2376       F  0.86218125  0.26403004  0.97481185    -0.23200
C2377       C  0.82741037  0.35516211  0.74835326    -0.06000
C2378       C  0.83941267  0.33970523  0.76845733    -0.00100
C2379       C  0.85336779  0.31952527  0.75755996    -0.08600
C2380       C  0.85484979  0.31578453  0.72697453    -0.06000
C2381       C  0.84337202  0.33176714  0.70681816    -0.00100
C2382       C  0.82932914  0.35190900  0.71785246    -0.08500
C2383       C  0.81777284  0.37131539  0.69788796     0.61800
H2384       H  0.81633478  0.37012142  0.75684975     0.12500
H2385       H  0.86564306  0.30056233  0.71848283     0.12500
C2386       C  0.86807205  0.30325984  0.77790038     0.62100
F2387       F  0.80697090  0.39090827  0.71336561    -0.23100
F2388       F  0.79024963  0.34804360  0.68046466    -0.20400
F2389       F  0.84515326  0.39363713  0.68065715    -0.20100
F2390       F  0.84173339  0.27749258  0.79391420    -0.20200
F2391       F  0.89231637  0.32831359  0.79668497    -0.20500
F2392       F  0.88429660  0.28854512  0.76270276    -0.23200
C2393       C  0.76960406  0.18915420  0.58480270    -0.06000
C2394       C  0.77865653  0.21184554  0.60911558    -0.00100
C2395       C  0.76315981  0.19827972  0.63659816    -0.08600
C2396       C  0.73914944  0.16276685  0.63837573    -0.06000
C2397       C  0.73023717  0.14036890  0.61417251    -0.00100
C2398       C  0.74569507  0.15343407  0.58691453    -0.08500
C2399       C  0.73827099  0.12952556  0.56074198     0.61800
H2400       H  0.78164443  0.19958150  0.56402657     0.12500
H2401       H  0.72684517  0.15192481  0.65900122     0.12500
C2402       C  0.77210808  0.22041507  0.66434311     0.62100
F2403       F  0.75741160  0.14722783  0.53667685    -0.23100
F2404       F  0.70353281  0.11366070  0.55306121    -0.20400
F2405       F  0.74665000  0.10449959  0.56769427    -0.20100
F2406       F  0.76056477  0.24381311  0.66171897    -0.20200
F2407       F  0.80759283  0.23793076  0.66927000    -0.20500
F2408       F  0.75668423  0.20070632  0.68878356    -0.23200
C2409       C  0.53554143  0.43895923  0.58052159    -0.06000
C2410       C  0.55397955  0.43133173  0.60158312    -0.00100
C2411       C  0.53849420  0.39678725  0.61206153    -0.08600
C2412       C  0.00413076  0.37279474  0.60215508    -0.06000
C2413       C  0.98483918  0.38228087  0.58401623    -0.00100
C2414       C  0.00140030  0.41552078  0.57158234    -0.08500
C2415       C  0.98261863  0.42534552  0.54920632     0.61800
H2416       H  0.54758940  0.46468681  0.57154645     0.12500
H2417       H  0.99094910  0.34724214  0.61151784     0.12500
C2418       C  0.55730111  0.38514092  0.63283966     0.62100
F2419       F  0.00450586  0.45716103  0.53692119    -0.23100
F2420       F  0.95559902  0.42700961  0.56205543    -0.20400
F2421       F  0.96945230  0.40069303  0.52699459    -0.20100
F2422       F  0.56188885  0.40116379  0.65982575    -0.20200
F2423       F  0.58918278  0.39329927  0.62159873    -0.20500
F2424       F  0.53885308  0.34970229  0.63701734    -0.23200
C2425       C  0.95429561  0.14639600  0.73864490    -0.06000
C2426       C  0.98206469  0.15995087  0.71893839    -0.00100
C2427       C  0.51668882  0.18108471  0.73066549    -0.08600
C2428       C  0.52204066  0.18271893  0.76108025    -0.06000
C2429       C  0.99423644  0.16392803  0.77981243    -0.00100
C2430       C  0.95963124  0.14708630  0.76895520    -0.08500
C2431       C  0.92841434  0.12730199  0.78842895     0.61800
H2432       H  0.92807069  0.13220775  0.73000056     0.12500
H2433       H  0.54818668  0.19730218  0.76981369     0.12500
C2434       C  0.54776620  0.20085456  0.71104918     0.62100
F2435       F  0.89736810  0.11461331  0.77313918    -0.23100
F2436       F  0.92874394  0.14889023  0.81043780    -0.20400
F2437       F  0.92920857  0.09935398  0.80034529    -0.20100
F2438       F  0.54099853  0.22002655  0.69123632    -0.20200
F2439       F  0.55486556  0.17801425  0.69629441    -0.20500
F2440       F  0.57725863  0.22365163  0.72687133    -0.23200
C2441       C  0.51605913  0.16150940  0.52197122    -0.06000
C2442       C  0.98193259  0.13585691  0.52855480    -0.00100
C2443       C  0.95928994  0.11486213  0.50512065    -0.08600
C2444       C  0.97113139  0.12265920  0.97597369    -0.06000
C2445       C  0.00448301  0.14894096  0.96896527    -0.00100
C2446       C  0.52896407  0.16858112  0.99276988    -0.08500
C2447       C  0.56636140  0.19579333  0.98686200     0.61800
H2448       H  0.53384653  0.17602695  0.53968364     0.12500
H2449       H  0.95424332  0.10719367  0.95809008     0.12500
C2450       C  0.92291153  0.08452528  0.51006161     0.62100
F2451       F  0.58345554  0.21435718  0.01191142    -0.23100
F2452       F  0.56739944  0.21902402  0.96651483    -0.20400
F2453       F  0.58408346  0.18001270  0.97638067    -0.20100
F2454       F  0.90281381  0.09602664  0.52353529    -0.20200
F2455       F  0.92466563  0.05999488  0.52712607    -0.20500
F2456       F  0.90624150  0.06819519  0.48413457    -0.23200
C2457       C  0.94406418  0.26432694  0.60492474    -0.06000
C2458       C  0.92932962  0.26655004  0.63143074    -0.00100
C2459       C  0.92158416  0.24108950  0.65281530    -0.08600
C2460       C  0.92698365  0.21323614  0.64626875    -0.06000
C2461       C  0.93915868  0.20970344  0.61886448    -0.00100
C2462       C  0.94896788  0.23620874  0.59822151    -0.08500
C2463       C  0.96431941  0.23452933  0.56921919     0.61800
H2464       H  0.94932636  0.28353120  0.58850645     0.12500
H2465       H  0.92119685  0.19377533  0.66260787     0.12500
C2466       C  0.90688867  0.24179900  0.68241114     0.62100
F2467       F  0.97210898  0.26285007  0.55205587    -0.23100
F2468       F  0.94094591  0.20494963  0.55391905    -0.20400
F2469       F  0.49509938  0.23379861  0.57505060    -0.20100
F2470       F  0.87348912  0.21408540  0.68422095    -0.20200
F2471       F  0.90619117  0.27201140  0.68746001    -0.20500
F2472       F  0.92709286  0.23908616  0.70416739    -0.23200
C2473       C  0.91571777  0.45473597  0.60410789    -0.06000
C2474       C  0.88100638  0.42973807  0.60871029    -0.00100
C2475       C  0.85510370  0.43936284  0.60584778    -0.08600
C2476       C  0.86569244  0.47476169  0.60264347    -0.06000
C2477       C  0.90077949  0.49989229  0.59996427    -0.00100
C2478       C  0.92565445  0.48911810  0.59777930    -0.08500
C2479       C  0.96258421  0.01323235  0.58951178     0.61800
H2480       H  0.93530412  0.44718004  0.60479584     0.12500
H2481       H  0.84687915  0.48328935  0.60384072     0.12500
C2482       C  0.81667459  0.41288724  0.60702721     0.62100
F2483       F  0.97024123  0.99838216  0.56621365    -0.23100
F2484       F  0.98501496  0.01820563  0.61248668    -0.20400
F2485       F  0.96806909  0.04509101  0.58054551    -0.20100
F2486       F  0.80950942  0.39363495  0.63211181    -0.20200
F2487       F  0.80716934  0.39106325  0.58286535    -0.20500
F2488       F  0.79647998  0.42839582  0.60696479    -0.23200
C2489       C  0.78492774  0.07332312  0.66735738    -0.06000
C2490       C  0.76162788  0.03801374  0.66210842    -0.00100
C2491       C  0.77480896  0.01523511  0.65775112    -0.08600
C2492       C  0.81101119  0.02934386  0.65614069    -0.06000
C2493       C  0.83401543  0.06517901  0.65828110    -0.00100
C2494       C  0.82095591  0.08743244  0.66533162    -0.08500
C2495       C  0.84468061  0.12612099  0.66991596     0.61800
H2496       H  0.77461044  0.09038870  0.67109501     0.12500
H2497       H  0.82145081  0.01264660  0.65110894     0.12500
C2498       C  0.75184690  0.47634972  0.65521769     0.62100
F2499       F  0.82744400  0.14121289  0.68285330    -0.23100
F2500       F  0.85693965  0.14179410  0.64331468    -0.20400
F2501       F  0.87229164  0.13231819  0.68799217    -0.20100
F2502       F  0.73423606  0.46749962  0.62869577    -0.20200
F2503       F  0.72827487  0.46509929  0.67773911    -0.20500
F2504       F  0.77034238  0.45911497  0.65712085    -0.23200
C2505       C  0.56788019  0.06591146  0.66824988    -0.06000
C2506       C  0.59425665  0.07985352  0.64763928    -0.00100
C2507       C  0.59529637  0.10399685  0.62727321    -0.08600
C2508       C  0.56872413  0.11220239  0.62734177    -0.06000
C2509       C  0.54092874  0.09699067  0.64692931    -0.00100
C2510       C  0.54112507  0.07409511  0.66855245    -0.08500
C2511       C  0.01239811  0.05659706  0.69044128     0.61800
H2512       H  0.56772246  0.04733864  0.68341691     0.12500
H2513       H  0.56918361  0.13015598  0.61136317     0.12500
C2514       C  0.62416499  0.12058658  0.60514846     0.62100
F2515       F  0.98042957  0.03680497  0.67681818    -0.23100
F2516       F  0.01208328  0.08182435  0.70796790    -0.20400
F2517       F  0.01776953  0.03498139  0.70854330    -0.20100
F2518       F  0.62252695  0.09557968  0.58613433    -0.20200
F2519       F  0.65588739  0.13664593  0.61960011    -0.20500
F2520       F  0.62188575  0.14529907  0.58874340    -0.23200
O2521       O  0.88305468  0.60342108  0.12988676    -0.85600
O2522       O  0.92813276  0.65582659  0.09644173    -0.82600
C2523       C  0.94596099  0.68099095  0.11415946     0.97900
O2524       O  0.96995197  0.68192938  0.12929037    -0.82600
O2525       O  0.99668501  0.65715637  0.16837028    -0.85300
C2526       C  0.97394130  0.64669989  0.18822730     1.02400
O2527       O  0.94423488  0.62123804  0.18299883    -0.78000
O2528       O  0.88731858  0.56565663  0.15638402    -0.78200
C2529       C  0.87026345  0.57980766  0.14824241     1.02400
O2530       O  0.89664868  0.55269080  0.09998566    -0.85600
O2531       O  0.94412418  0.60642867  0.06744062    -0.82600
C2532       C  0.97165050  0.63276131  0.06009434     0.97900
O2533       O  0.99009187  0.65516618  0.07965371    -0.82600
O2534       O  0.51227313  0.62321674  0.12166085    -0.85300
C2535       C  0.51243495  0.60590671  0.14333080     1.02400
O2536       O  0.98896628  0.59700605  0.16130055    -0.78100
O2537       O  0.93453079  0.54925783  0.12891749    -0.78200
C2538       C  0.91121436  0.53618473  0.10953416     1.02400
Cr2539     Cr  0.91538443  0.60523057  0.10016365     1.93700
Cr2540     Cr  0.98944330  0.65169272  0.12433762     1.93200
Cr2541     Cr  0.93937559  0.58552104  0.15538933     1.39100
O2542       O  0.94809188  0.61407355  0.12623228    -1.23300
O2543       O  0.88265811  0.77173202  0.11547495    -0.85600
O2544       O  0.82610271  0.75777517  0.08411369    -0.82600
C2545       C  0.80503764  0.74891750  0.10516964     0.97900
O2546       O  0.80611049  0.77174977  0.12215115    -0.82600
O2547       O  0.83271034  0.83259269  0.15472124    -0.85300
C2548       C  0.85085478  0.82979862  0.17499846     1.02400
O2549       O  0.87701727  0.82758091  0.16841606    -0.78000
O2550       O  0.92481243  0.81858754  0.13587675    -0.78200
C2551       C  0.91085699  0.78648419  0.12914191     1.02400
O2552       O  0.92837178  0.83003653  0.07989347    -0.85600
O2553       O  0.86796963  0.82019908  0.05157950    -0.82600
C2554       C  0.83744964  0.81352731  0.04669508     0.97900
O2555       O  0.81730988  0.80847362  0.06801784    -0.82600
O2556       O  0.84953991  0.86932893  0.09994619    -0.85300
C2557       C  0.87298142  0.89384763  0.11476310     1.02400
O2558       O  0.89034747  0.88794820  0.13387017    -0.78100
O2559       O  0.93246219  0.87602272  0.10039729    -0.78200
C2560       C  0.94607492  0.86220351  0.08604155     1.02400
Cr2561     Cr  0.87593270  0.79695415  0.08419230     1.93700
Cr2562     Cr  0.82907102  0.82068659  0.11119925     1.93200
Cr2563     Cr  0.90370519  0.85049313  0.13334545     1.39100
O2564       O  0.86952749  0.82276688  0.10967298    -1.23300
O2565       O  0.71088778  0.54056485  0.17508193    -0.85600
O2566       O  0.71156503  0.58972665  0.14123387    -0.82600
C2567       C  0.70545341  0.60343178  0.11997304     0.97900
O2568       O  0.67731004  0.58685454  0.10566298    -0.82600
O2569       O  0.67704428  0.53109893  0.08051203    -0.85300
C2570       C  0.66997083  0.50100886  0.07373251     1.02400
O2571       O  0.65782717  0.97760679  0.09356044    -0.78000
O2572       O  0.70584537  0.50594258  0.13864844    -0.78200
C2573       C  0.72394536  0.52717484  0.15859369     1.02400
O2574       O  0.64074972  0.52076113  0.19206905    -0.85600
O2575       O  0.64336503  0.57430180  0.15966275    -0.82600
C2576       C  0.61602737  0.56407645  0.14415905     0.97900
O2577       O  0.60794799  0.54152299  0.12439956    -0.82600
O2578       O  0.60470591  0.98659679  0.09503397    -0.85300
C2579       C  0.58896829  0.96036309  0.11135149     1.02400
O2580       O  0.60361235  0.95870134  0.13462203    -0.78100
O2581       O  0.65238540  0.97996760  0.18171116    -0.78200
C2582       C  0.64453324  0.99601140  0.20041485     1.02400
Cr2583     Cr  0.67497951  0.55395653  0.16495021     1.93700
Cr2584     Cr  0.64281371  0.53560410  0.10358201     1.93200
Cr2585     Cr  0.65507057  0.98328706  0.13734715     1.39100
O2586       O  0.65708871  0.52431807  0.13541256    -1.23300
O2587       O  0.76751808  0.82289343  0.32477881    -0.85600
O2588       O  0.76771894  0.87149561  0.36101202    -0.82600
C2589       C  0.77437870  0.89164192  0.38255900     0.97900
O2590       O  0.80364957  0.90470074  0.39505253    -0.82600
O2591       O  0.80303524  0.84911500  0.42151962    -0.85300
C2592       C  0.80836192  0.82455033  0.42656413     1.02400
O2593       O  0.81985216  0.81351303  0.40634851    -0.78000
O2594       O  0.77286698  0.79294675  0.36015922    -0.78200
C2595       C  0.75497864  0.79570903  0.34000860     1.02400
O2596       O  0.83700700  0.87277258  0.30777598    -0.85600
O2597       O  0.83534780  0.92348518  0.34109278    -0.82600
C2598       C  0.86438442  0.93955044  0.35436217     0.97900
O2599       O  0.87186853  0.92560106  0.37466218    -0.82600
O2600       O  0.87390202  0.87562524  0.40608742    -0.85300
C2601       C  0.88999811  0.86600307  0.38938675     1.02400
O2602       O  0.87546089  0.84855031  0.36635806    -0.78100
O2603       O  0.82763015  0.82133129  0.31867614    -0.78200
C2604       C  0.83576270  0.84504724  0.30010809     1.02400
Cr2605     Cr  0.80339475  0.87188758  0.33586420     1.93700
Cr2606     Cr  0.83674415  0.88665564  0.39684076     1.93200
Cr2607     Cr  0.82385277  0.82186831  0.36288823     1.39100
O2608       O  0.82144775  0.86021209  0.36504234    -1.23300
O2609       O  0.59266939  0.87923271  0.39344646    -0.85600
O2610       O  0.64995181  0.92294842  0.42190445    -0.82600
C2611       C  0.67091095  0.93043649  0.40089787     0.97900
O2612       O  0.67197612  0.95008967  0.38076444    -0.82600
O2613       O  0.64939291  0.98344733  0.34269069    -0.85300
C2614       C  0.63098582  0.96028455  0.32368915     1.02400
O2615       O  0.60503803  0.93280586  0.33193080    -0.78000
O2616       O  0.55325468  0.88212668  0.36732624    -0.78200
C2617       C  0.56499009  0.86429335  0.37939931     1.02400
O2618       O  0.55034677  0.90166309  0.42229661    -0.85600
O2619       O  0.61189439  0.95355008  0.44770290    -0.82600
C2620       C  0.64346850  0.97511020  0.45173347     0.97900
O2621       O  0.66393681  0.98530768  0.43023037    -0.82600
O2622       O  0.63339828  0.51153252  0.39296157    -0.85300
C2623       C  0.61076947  0.51160269  0.37640348     1.02400
O2624       O  0.59452785  0.98706641  0.35829733    -0.78100
O2625       O  0.54832999  0.93930778  0.39370202    -0.78200
C2626       C  0.53402043  0.91568444  0.41182465     1.02400
Cr2627     Cr  0.60164347  0.91646033  0.41968077     1.93700
Cr2628     Cr  0.65225294  0.98039990  0.38681745     1.93200
Cr2629     Cr  0.57766757  0.93574433  0.36423634     1.39100
O2630       O  0.61042949  0.94419922  0.39018063    -1.23300
O2631       O  0.59825084  0.71008224  0.36318015    -0.85600
O2632       O  0.55500379  0.71858547  0.39909416    -0.82600
C2633       C  0.53522280  0.72416725  0.38245550     0.97900
O2634       O  0.51098164  0.69995876  0.36835039    -0.82600
O2635       O  0.98278139  0.64730840  0.33024829    -0.85300
C2636       C  0.50445281  0.65798363  0.31013706     1.02400
O2637       O  0.53429873  0.66202691  0.31360166    -0.78000
O2638       O  0.59319307  0.66621355  0.33818495    -0.78200
C2639       C  0.61032395  0.69799381  0.34498975     1.02400
O2640       O  0.58894821  0.64885160  0.39436469    -0.85600
O2641       O  0.54343541  0.65688333  0.43039778    -0.82600
C2642       C  0.01450268  0.65432778  0.43724278     0.97900
O2643       O  0.99433811  0.65588128  0.41825022    -0.82600
O2644       O  0.97024327  0.60072956  0.37875040    -0.85300
C2645       C  0.96828355  0.58240406  0.35701139     1.02400
O2646       O  0.99099209  0.59512707  0.33734494    -0.78100
O2647       O  0.54846247  0.60457434  0.36902146    -0.78200
C2648       C  0.57504897  0.61750333  0.38505545     1.02400
Cr2649     Cr  0.56892659  0.68163780  0.39521995     1.93700
Cr2650     Cr  0.99234860  0.65114679  0.37388301     1.93200
Cr2651     Cr  0.54148001  0.63365008  0.34187617     1.39100
O2652       O  0.53451572  0.65538793  0.37102060    -1.23300
C2653       C  0.54211637  0.80769466  0.35368889    -0.06000
C2654       C  0.54738484  0.82605404  0.37993507    -0.00100
C2655       C  0.54477113  0.80913020  0.40698739    -0.08600
C2656       C  0.54184101  0.77641077  0.40653900    -0.06000
C2657       C  0.53862927  0.75882225  0.38041060    -0.00100
C2658       C  0.53642730  0.77358399  0.35345792    -0.08500
C2659       C  0.52859489  0.75387758  0.32454549     0.61800
H2660       H  0.54390602  0.82077309  0.33338828     0.12500
H2661       H  0.54163657  0.76396209  0.42683121     0.12500
C2662       C  0.54453748  0.82497343  0.43656581     0.62100
F2663       F  0.53258694  0.77475351  0.30097170    -0.23100
F2664       F  0.49467104  0.72684264  0.32419459    -0.20400
F2665       F  0.55058681  0.74084274  0.32079830    -0.20100
F2666       F  0.52015861  0.83531719  0.43604103    -0.20200
F2667       F  0.57674607  0.85291190  0.44347854    -0.18700
F2668       F  0.53568950  0.80137080  0.45891144    -0.23200
C2669       C  0.58910317  0.54379781  0.40506097    -0.06000
C2670       C  0.60451375  0.54103176  0.37925390    -0.00100
C2671       C  0.61571040  0.56739372  0.35825349    -0.08600
C2672       C  0.60949573  0.59495572  0.36314574    -0.06000
C2673       C  0.59167676  0.59631841  0.38787175    -0.00100
C2674       C  0.58136520  0.57048496  0.40926030    -0.08500
C2675       C  0.56067223  0.57028708  0.43545447     0.61800
H2676       H  0.58177993  0.52396497  0.42132468     0.12500
H2677       H  0.61629988  0.61444841  0.34658597     0.12500
C2678       C  0.63386860  0.56617218  0.33080669     0.62100
F2679       F  0.55588268  0.54492689  0.45514280    -0.23100
F2680       F  0.52842253  0.56413891  0.42622716    -0.20400
F2681       F  0.57793942  0.60203007  0.44977273    -0.20100
F2682       F  0.61215813  0.03644169  0.31446451    -0.20200
F2683       F  0.66342369  0.56519094  0.33841958    -0.20500
F2684       F  0.64357268  0.59485429  0.31354338    -0.23200
C2685       C  0.88026647  0.00058383  0.35767956    -0.06000
C2686       C  0.88904527  0.97606950  0.34848031    -0.00100
C2687       C  0.92295947  0.98691028  0.33890297    -0.08600
C2688       C  0.94736904  0.52197686  0.34185230    -0.06000
C2689       C  0.93954498  0.54626133  0.35386457    -0.00100
C2690       C  0.90486632  0.53554557  0.36179512    -0.08500
C2691       C  0.89429738  0.56067091  0.37389272     0.61800
H2692       H  0.85384987  0.99156237  0.36407839     0.12500
H2693       H  0.97376452  0.53061567  0.33534874     0.12500
C2694       C  0.93245784  0.96116723  0.32655256     0.62100
F2695       F  0.85864712  0.54538912  0.37612186    -0.23100
F2696       F  0.90554714  0.58880474  0.35576150    -0.20400
F2697       F  0.90859570  0.57196376  0.40151653    -0.20100
F2698       F  0.96515052  0.97759791  0.31442667    -0.20200
F2699       F  0.90880029  0.94118647  0.30489847    -0.20500
F2700       F  0.93207578  0.93984576  0.34843829    -0.23200
C2701       C  0.67020412  0.70915942  0.34076925    -0.06000
C2702       C  0.64642032  0.72034598  0.33533177    -0.00100
C2703       C  0.65866405  0.75455613  0.32575011    -0.08600
C2704       C  0.69457265  0.77787107  0.32582265    -0.06000
C2705       C  0.71841419  0.76788670  0.33491887    -0.00100
C2706       C  0.70624477  0.73237231  0.34049503    -0.08500
C2707       C  0.73079867  0.71887205  0.34669463     0.61800
H2708       H  0.66039962  0.68266354  0.34746904     0.12500
H2709       H  0.70406663  0.80471665  0.32049363     0.12500
C2710       C  0.63388626  0.76642457  0.31570558     0.62100
F2711       F  0.71407683  0.68314000  0.34408505    -0.23100
F2712       F  0.74408319  0.72802766  0.37483492    -0.20400
F2713       F  0.75768983  0.73247038  0.32696887    -0.20100
F2714       F  0.61621606  0.76905390  0.33931035    -0.20200
F2715       F  0.61046582  0.74283333  0.29557616    -0.20500
F2716       F  0.65113128  0.79841390  0.30247596    -0.23200
C2717       C  0.72794719  0.93752925  0.41336513    -0.06000
C2718       C  0.69527581  0.91739374  0.40020492    -0.00100
C2719       C  0.68766480  0.88717289  0.38428201    -0.08600
C2720       C  0.71400847  0.87927443  0.38031742    -0.06000
C2721       C  0.74767691  0.90040672  0.39182556    -0.00100
C2722       C  0.75443290  0.92936075  0.40993672    -0.08500
C2723       C  0.78911387  0.95208296  0.42523379     0.61800
H2724       H  0.73275060  0.96033433  0.42573721     0.12500
H2725       H  0.70835404  0.85634272  0.36775679     0.12500
C2726       C  0.65170749  0.86294724  0.37194934     0.62100
F2727       F  0.78919361  0.97815987  0.44188075    -0.23100
F2728       F  0.81490739  0.96757772  0.40482768    -0.20400
F2729       F  0.79652936  0.93228231  0.44376175    -0.20100
F2730       F  0.64106018  0.88080798  0.35413687    -0.20200
F2731       F  0.62906839  0.84840667  0.39484148    -0.20500
F2732       F  0.65058586  0.83632652  0.35548154    -0.23200
C2733       C  0.94683475  0.90995985  0.40930833    -0.06000
C2734       C  0.92607168  0.87629034  0.39786124    -0.00100
C2735       C  0.93943968  0.85347392  0.39715335    -0.08600
C2736       C  0.97421421  0.86623603  0.40587710    -0.06000
C2737       C  0.49642105  0.90107584  0.41562721    -0.00100
C2738       C  0.98117728  0.92242068  0.41848818    -0.08500
C2739       C  0.50287730  0.95985035  0.43069566     0.61800
H2740       H  0.93627197  0.92714523  0.41063873     0.12500
H2741       H  0.98577516  0.85023772  0.40254355     0.12500
C2742       C  0.91739537  0.81604928  0.38711669     0.62100
F2743       F  0.48387812  0.96536314  0.45163569    -0.23100
F2744       F  0.50955436  0.98255088  0.40800436    -0.20400
F2745       F  0.53392803  0.96688972  0.44362182    -0.20100
F2746       F  0.90934067  0.81464965  0.35771775    -0.20200
F2747       F  0.88712543  0.80007758  0.40295273    -0.20500
F2748       F  0.93444380  0.79762377  0.39110914    -0.23200
C2749       C  0.65292908  0.50248211  0.28336270    -0.06000
C2750       C  0.63696784  0.96776925  0.29173228    -0.00100
C2751       C  0.62373363  0.94191737  0.26918207    -0.08600
C2752       C  0.62700734  0.95229176  0.23972163    -0.06000
C2753       C  0.64197141  0.98721558  0.23202930    -0.00100
C2754       C  0.65537828  0.51280186  0.25412309    -0.08500
C2755       C  0.67312558  0.55139029  0.24780044     0.61800
H2756       H  0.66293317  0.52200703  0.30051701     0.12500
H2757       H  0.61682641  0.93295330  0.22232228     0.12500
C2758       C  0.60618042  0.90353202  0.27575613     0.62100
F2759       F  0.68792735  0.57156827  0.27268773    -0.23100
F2760       F  0.64923123  0.55958971  0.23675621    -0.20400
F2761       F  0.69934644  0.56023860  0.22794772    -0.20100
F2762       F  0.57387765  0.89255889  0.28751297    -0.20200
F2763       F  0.62628858  0.89737610  0.29523477    -0.20500
F2764       F  0.60153002  0.88385217  0.25078275    -0.23200
C2765       C  0.68420558  0.52104792  0.02283723    -0.06000
C2766       C  0.67080876  0.99217078  0.04257018    -0.00100
C2767       C  0.65188738  0.95797135  0.03070150    -0.08600
C2768       C  0.64587886  0.95437280  0.50048557    -0.06000
C2769       C  0.65660050  0.98282145  0.48204613    -0.00100
C2770       C  0.67712320  0.51675981  0.49276367    -0.08500
C2771       C  0.68812088  0.54816738  0.47372299     0.61800
H2772       H  0.69903245  0.54706092  0.03174943     0.12500
H2773       H  0.63072476  0.92863164  0.49098692     0.12500
C2774       C  0.63684233  0.92569897  0.04933913     0.62100
F2775       F  0.70608065  0.57883908  0.48957276    -0.23100
F2776       F  0.66034703  0.04694443  0.46102425    -0.20400
F2777       F  0.70940696  0.54852957  0.45177143    -0.20100
F2778       F  0.61016399  0.92357537  0.06599009    -0.20200
F2779       F  0.66242186  0.92671267  0.06732094    -0.20500
F2780       F  0.62341856  0.89570002  0.03247560    -0.23200
C2781       C  0.79998704  0.81905362  0.00914215    -0.06000
C2782       C  0.82484749  0.80963981  0.01600166    -0.00100
C2783       C  0.83660996  0.79601176  0.99346037    -0.08600
C2784       C  0.83197229  0.80257018  0.46407912    -0.06000
C2785       C  0.80852384  0.81380403  0.45722655    -0.00100
C2786       C  0.79082440  0.81958632  0.48027316    -0.08500
C2787       C  0.76174006  0.82712061  0.47450303     0.61800
H2788       H  0.78972283  0.82776848  0.02655651     0.12500
H2789       H  0.84476725  0.79731823  0.44643698     0.12500
C2790       C  0.85959292  0.78048741  0.99948701     0.62100
F2791       F  0.73812308  0.81717604  0.99751490    -0.23100
F2792       F  0.74075220  0.80644471  0.45172052    -0.20400
F2793       F  0.77540606  0.86157123  0.46753825    -0.20100
F2794       F  0.84600007  0.75703322  0.02198438    -0.20200
F2795       F  0.89283626  0.80634242  0.00688121    -0.20500
F2796       F  0.87180522  0.77319093  0.47337725    -0.23200
C2797       C  0.82700125  0.85430419  0.24826545    -0.06000
C2798       C  0.83943013  0.83930673  0.26838573    -0.00100
C2799       C  0.85379409  0.81944656  0.25757906    -0.08600
C2800       C  0.85545741  0.81578551  0.22698798    -0.06000
C2801       C  0.84358699  0.83140190  0.20679372    -0.00100
C2802       C  0.82896266  0.85103562  0.21780023    -0.08500
C2803       C  0.81688937  0.87000356  0.19785156     0.61800
H2804       H  0.81555175  0.86893068  0.25674045     0.12500
H2805       H  0.86664106  0.80090198  0.21853533     0.12500
C2806       C  0.86864723  0.80340281  0.27802428     0.62100
F2807       F  0.80547434  0.88908169  0.21332099    -0.23100
F2808       F  0.78962214  0.84644171  0.18035763    -0.20400
F2809       F  0.84416444  0.89273817  0.18073621    -0.20100
F2810       F  0.84238183  0.77760188  0.29407304    -0.20200
F2811       F  0.89277540  0.82858130  0.29679370    -0.20500
F2812       F  0.88503305  0.78878621  0.26292294    -0.23200
C2813       C  0.76726868  0.68967528  0.08460344    -0.06000
C2814       C  0.77868751  0.71186428  0.10932275    -0.00100
C2815       C  0.76571951  0.69790835  0.13731242    -0.08600
C2816       C  0.74157848  0.66243873  0.13922995    -0.06000
C2817       C  0.73008552  0.64043412  0.11458982    -0.00100
C2818       C  0.74313446  0.65401108  0.08675106    -0.08500
C2819       C  0.73292437  0.63076848  0.05979311     0.61800
H2820       H  0.77748458  0.70053206  0.06343731     0.12500
H2821       H  0.73112123  0.65140508  0.16030895     0.12500
C2822       C  0.77761370  0.71966080  0.16535527     0.62100
F2823       F  0.75074544  0.64877165  0.03533488    -0.23100
F2824       F  0.69786455  0.61644865  0.05399518    -0.20400
F2825       F  0.74033036  0.60458564  0.06444038    -0.20100
F2826       F  0.76592447  0.74307265  0.16549365    -0.20200
F2827       F  0.81343759  0.73719505  0.16752712    -0.20500
F2828       F  0.76485529  0.69957874  0.19004471    -0.23200
C2829       C  0.53534130  0.93938536  0.08086150    -0.06000
C2830       C  0.55368536  0.93167752  0.10195844    -0.00100
C2831       C  0.53821225  0.89707275  0.11228271    -0.08600
C2832       C  0.00345800  0.87328380  0.10194617    -0.06000
C2833       C  0.98427390  0.88257706  0.08348321    -0.00100
C2834       C  0.00081988  0.91582930  0.07107104    -0.08500
C2835       C  0.98212726  0.92551789  0.04848280     0.61800
H2836       H  0.54740575  0.96515823  0.07197991     0.12500
H2837       H  0.99025959  0.84773996  0.11131498     0.12500
C2838       C  0.55692995  0.88535954  0.13309759     0.62100
F2839       F  0.00388200  0.95758292  0.03653977    -0.23100
F2840       F  0.95457786  0.92654679  0.06097328    -0.20400
F2841       F  0.96972497  0.90111689  0.02606491    -0.20100
F2842       F  0.56118327  0.90112669  0.16016158    -0.20200
F2843       F  0.58896350  0.89375027  0.12206051    -0.20500
F2844       F  0.53857288  0.84987795  0.13703653    -0.23200
C2845       C  0.95442268  0.64648109  0.23857821    -0.06000
C2846       C  0.98216563  0.66025834  0.21884268    -0.00100
C2847       C  0.51649696  0.68150415  0.23072285    -0.08600
C2848       C  0.52175997  0.68332442  0.26115637    -0.06000
C2849       C  0.99442900  0.66424747  0.27972019    -0.00100
C2850       C  0.95980922  0.64729097  0.26888950    -0.08500
C2851       C  0.92863295  0.62754329  0.28840994     0.61800
H2852       H  0.92819214  0.63212880  0.22996702     0.12500
H2853       H  0.54790114  0.69792898  0.26991355     0.12500
C2854       C  0.54772081  0.70072744  0.21114765     0.62100
F2855       F  0.89755533  0.61473633  0.27314939    -0.23100
F2856       F  0.92894583  0.64920712  0.31034336    -0.20400
F2857       F  0.92951773  0.59968524  0.30041667    -0.20100
F2858       F  0.54133536  0.71971365  0.19085022    -0.20200
F2859       F  0.55459208  0.67739750  0.19696350    -0.20500
F2860       F  0.57720924  0.72362532  0.22692435    -0.23200
C2861       C  0.51646317  0.66230075  0.02210168    -0.06000
C2862       C  0.98171397  0.63741390  0.02824463    -0.00100
C2863       C  0.95786082  0.61861936  0.00476366    -0.08600
C2864       C  0.97207590  0.62173076  0.47583068    -0.06000
C2865       C  0.00483490  0.64906379  0.46877305    -0.00100
C2866       C  0.52882355  0.66939225  0.49282085    -0.08500
C2867       C  0.56577895  0.69766350  0.48684278     0.61800
H2868       H  0.53391059  0.67748072  0.03978536     0.12500
H2869       H  0.95553098  0.60576566  0.45797880     0.12500
C2870       C  0.91990157  0.59191490  0.00969327     0.62100
F2871       F  0.58244897  0.71665414  0.51184638    -0.23100
F2872       F  0.56570175  0.72029780  0.46642805    -0.20400
F2873       F  0.58461504  0.68306221  0.47638889    -0.20100
F2874       F  0.90416066  0.60675078  0.02537725    -0.20200
F2875       F  0.91748238  0.56399721  0.02463915    -0.20500
F2876       F  0.90148636  0.57923124  0.98367157    -0.23200
C2877       C  0.94371171  0.76433820  0.10406248    -0.06000
C2878       C  0.92918555  0.76672083  0.13063286    -0.00100
C2879       C  0.92170366  0.74150353  0.15218605    -0.08600
C2880       C  0.92741885  0.71383649  0.14581462    -0.06000
C2881       C  0.93923963  0.71004248  0.11832811    -0.00100
C2882       C  0.94858986  0.73620267  0.09743752    -0.08500
C2883       C  0.96332222  0.73409190  0.06823409     0.61800
H2884       H  0.94870580  0.78334418  0.08752860     0.12500
H2885       H  0.92200200  0.69464559  0.16229213     0.12500
C2886       C  0.90703225  0.74222553  0.18180745     0.62100
F2887       F  0.97131106  0.76245828  0.05106637    -0.23100
F2888       F  0.93935541  0.70461296  0.05315064    -0.20400
F2889       F  0.49631675  0.73527093  0.07602603    -0.20100
F2890       F  0.87439981  0.71345020  0.18429155    -0.20200
F2891       F  0.90446850  0.77150713  0.18628063    -0.20500
F2892       F  0.92836025  0.74145673  0.20355195    -0.23200
C2893       C  0.91572819  0.95487754  0.10475560    -0.06000
C2894       C  0.88093583  0.92984136  0.10903997    -0.00100
C2895       C  0.85510032  0.93955066  0.10618053    -0.08600
C2896       C  0.86574648  0.97496155  0.10295589    -0.06000
C2897       C  0.90086593  0.00012865  0.10059602    -0.00100
C2898       C  0.92580994  0.98938616  0.09874631    -0.08500
C2899       C  0.96247400  0.51346331  0.09041783     0.61800
H2900       H  0.93528087  0.94726315  0.10546877     0.12500
H2901       H  0.84692942  0.98349225  0.10401602     0.12500
C2902       C  0.81665736  0.91316676  0.10761158     0.62100
F2903       F  0.97086119  0.49872579  0.06750684    -0.23100
F2904       F  0.98410225  0.51822286  0.11397972    -0.20400
F2905       F  0.96835755  0.54540978  0.08129523    -0.20100
F2906       F  0.80963423  0.89439883  0.13296550    -0.20200
F2907       F  0.80691198  0.89088215  0.08375450    -0.20500
F2908       F  0.79652389  0.92873701  0.10728095    -0.23200
C2909       C  0.78428408  0.57440267  0.16471679    -0.06000
C2910       C  0.76139591  0.53871520  0.16145779    -0.00100
C2911       C  0.77500872  0.51613724  0.15874562    -0.08600
C2912       C  0.81125394  0.53057967  0.15702247    -0.06000
C2913       C  0.83389003  0.56657441  0.15730285    -0.00100
C2914       C  0.82033522  0.58888277  0.16242357    -0.08500
C2915       C  0.84346862  0.62791959  0.16493088     0.61800
H2916       H  0.77352472  0.59127829  0.16713638     0.12500
H2917       H  0.82197278  0.51384423  0.15336482     0.12500
C2918       C  0.75143128  0.97588799  0.15715902     0.62100
F2919       F  0.82570600  0.64342558  0.17603923    -0.23100
F2920       F  0.85555387  0.64164620  0.13768714    -0.20400
F2921       F  0.87118492  0.63602232  0.18355076    -0.20100
F2922       F  0.73333129  0.96626726  0.13087209    -0.20200
F2923       F  0.72826395  0.96520859  0.17997281    -0.20500
F2924       F  0.77006040  0.95880819  0.15929536    -0.23200
C2925       C  0.56770235  0.56622941  0.16833674    -0.06000
C2926       C  0.59372837  0.57959236  0.14739759    -0.00100
C2927       C  0.59477383  0.60364498  0.12692094    -0.08600
C2928       C  0.56831825  0.61202767  0.12702039    -0.06000
C2929       C  0.54080129  0.59732036  0.14691918    -0.00100
C2930       C  0.54123472  0.57482571  0.16881683    -0.08500
C2931       C  0.01405740  0.55916690  0.19133273     0.61800
H2932       H  0.56761463  0.54784755  0.18368377     0.12500
H2933       H  0.56870356  0.62979725  0.11088631     0.12500
C2934       C  0.62368124  0.62016573  0.10481130     0.62100
F2935       F  0.98174551  0.53848980  0.17853837    -0.23100
F2936       F  0.01396977  0.58507143  0.20805742    -0.20400
F2937       F  0.02030860  0.53866561  0.21008703    -0.20100
F2938       F  0.62212012  0.59512972  0.08588023    -0.20200
F2939       F  0.65537747  0.63628967  0.11931427    -0.20500
F2940       F  0.62142647  0.64482614  0.08830797    -0.23200
O2941       O  0.88388764  0.60296524  0.63032581    -0.85600
O2942       O  0.92864465  0.65550059  0.59676175    -0.82600
C2943       C  0.94698792  0.68077045  0.61420585     0.97900
O2944       O  0.97122286  0.68166708  0.62894733    -0.82600
O2945       O  0.99708884  0.65637255  0.66826969    -0.85300
C2946       C  0.97422841  0.64577853  0.68804974     1.02400
O2947       O  0.94467014  0.62002593  0.68287671    -0.78000
O2948       O  0.88796452  0.56448051  0.65588128    -0.78200
C2949       C  0.87097582  0.57885708  0.64822842     1.02400
O2950       O  0.89727549  0.55244488  0.59971221    -0.85600
O2951       O  0.94426580  0.60627909  0.56720651    -0.82600
C2952       C  0.97244507  0.63189558  0.56003183     0.97900
O2953       O  0.99113951  0.65415387  0.57959246    -0.82600
O2954       O  0.51340571  0.62369796  0.62190179    -0.85300
C2955       C  0.51358691  0.60627620  0.64348762     1.02400
O2956       O  0.98958756  0.59619329  0.66127116    -0.78100
O2957       O  0.93550540  0.54888177  0.62811197    -0.78200
C2958       C  0.91203119  0.53594866  0.60884103     1.02400
Cr2959     Cr  0.91593830  0.60494482  0.60023549     1.93700
Cr2960     Cr  0.99027493  0.65095946  0.62422056     1.93200
Cr2961     Cr  0.94005384  0.58465245  0.65501808     1.39100
O2962       O  0.94880654  0.61351515  0.62607881    -1.23300
O2963       O  0.88325100  0.77115786  0.61595393    -0.85600
O2964       O  0.82688092  0.75761266  0.58411500    -0.82600
C2965       C  0.80545804  0.74865915  0.60490597     0.97900
O2966       O  0.80666723  0.77143000  0.62202278    -0.82600
O2967       O  0.83315719  0.83200050  0.65507231    -0.85300
C2968       C  0.85135432  0.82930233  0.67538716     1.02400
O2969       O  0.87757443  0.82717618  0.66885199    -0.78000
O2970       O  0.92533109  0.81801222  0.63648762    -0.78200
C2971       C  0.91141260  0.78590281  0.62973051     1.02400
O2972       O  0.92917774  0.82948090  0.58063311    -0.85600
O2973       O  0.86940444  0.82042013  0.55222258    -0.82600
C2974       C  0.83908809  0.81408408  0.54695131     0.97900
O2975       O  0.81856261  0.80868145  0.56805989    -0.82600
O2976       O  0.85037011  0.86914450  0.60042271    -0.85300
C2977       C  0.87369028  0.89360287  0.61535255     1.02400
O2978       O  0.89115163  0.88767968  0.63435515    -0.78100
O2979       O  0.93324832  0.87554168  0.60096126    -0.78200
C2980       C  0.94682705  0.86164970  0.58665430     1.02400
Cr2981     Cr  0.87678001  0.79664068  0.58467830     1.93700
Cr2982     Cr  0.82984761  0.82043795  0.61141697     1.93200
Cr2983     Cr  0.90437481  0.85007226  0.63386374     1.39100
O2984       O  0.87026692  0.82239930  0.61013377    -1.23300
O2985       O  0.71203737  0.54094946  0.67451550    -0.85600
O2986       O  0.71263220  0.58952433  0.63977745    -0.82600
C2987       C  0.70611898  0.60307995  0.61864296     0.97900
O2988       O  0.67770197  0.58651718  0.60474414    -0.82600
O2989       O  0.67768141  0.53074611  0.58023622    -0.85300
C2990       C  0.67070698  0.50067475  0.57356298     1.02400
O2991       O  0.65776891  0.97795970  0.59366423    -0.78000
O2992       O  0.70652060  0.50572960  0.63847614    -0.78200
C2993       C  0.72481305  0.52706273  0.65827667     1.02400
O2994       O  0.64229615  0.52193542  0.69181100    -0.85600
O2995       O  0.64468819  0.57482155  0.65863268    -0.82600
C2996       C  0.61702789  0.56424031  0.64348047     0.97900
O2997       O  0.60862996  0.54135044  0.62395291    -0.82600
O2998       O  0.60449385  0.98662669  0.59516042    -0.85300
C2999       C  0.58881375  0.96043590  0.61154013     1.02400
O3000       O  0.60354998  0.95888597  0.63480281    -0.78100
O3001       O  0.65252890  0.98074747  0.68180475    -0.78200
C3002       C  0.64478211  0.99689885  0.70048985     1.02400
Cr3003     Cr  0.67624810  0.55442709  0.66413829     1.93700
Cr3004     Cr  0.64338878  0.53527572  0.60309304     1.93200
Cr3005     Cr  0.65507035  0.98378116  0.63744682     1.39100
O3006       O  0.65786570  0.52431227  0.63498863    -1.23300
O3007       O  0.76796656  0.82203738  0.82459950    -0.85600
O3008       O  0.76760806  0.87026192  0.86096165    -0.82600
C3009       C  0.77399158  0.89038166  0.88248409     0.97900
O3010       O  0.80302794  0.90314514  0.89538540    -0.82600
O3011       O  0.80200958  0.84729757  0.92175370    -0.85300
C3012       C  0.80672861  0.82230599  0.92667383     1.02400
O3013       O  0.81875496  0.81156802  0.90664614    -0.78000
O3014       O  0.77269644  0.79146847  0.85980559    -0.78200
C3015       C  0.75516704  0.79462624  0.83954329     1.02400
O3016       O  0.83776097  0.87204109  0.80845588    -0.85600
O3017       O  0.83560314  0.92242354  0.84193172    -0.82600
C3018       C  0.86440526  0.93837327  0.85556874     0.97900
O3019       O  0.87162037  0.92415493  0.87581529    -0.82600
O3020       O  0.87309133  0.87375190  0.90711803    -0.85300
C3021       C  0.88945156  0.86438870  0.89045754     1.02400
O3022       O  0.87517889  0.84716927  0.86728434    -0.78100
O3023       O  0.82817429  0.82045963  0.81906372    -0.78200
C3024       C  0.83651564  0.84435703  0.80063694     1.02400
Cr3025     Cr  0.80369759  0.87088013  0.83619884     1.93700
Cr3026     Cr  0.83609856  0.88498426  0.89750664     1.93200
Cr3027     Cr  0.82364372  0.82047788  0.86323906     1.39100
O3028       O  0.82122034  0.85882293  0.86550948    -1.23300
O3029       O  0.59335422  0.87964835  0.89253967    -0.85600
O3030       O  0.65024966  0.92305183  0.92138208    -0.82600
C3031       C  0.67105293  0.93055771  0.90024974     0.97900
O3032       O  0.67201986  0.95037679  0.88030422    -0.82600
O3033       O  0.64922456  0.98391731  0.84268148    -0.85300
C3034       C  0.63092146  0.96084114  0.82360218     1.02400
O3035       O  0.60498654  0.93324682  0.83171075    -0.78000
O3036       O  0.55327270  0.88197038  0.86710174    -0.78200
C3037       C  0.56536340  0.86434567  0.87903076     1.02400
O3038       O  0.55031234  0.90114620  0.92194394    -0.85600
O3039       O  0.61177070  0.95299588  0.94758778    -0.82600
C3040       C  0.64331245  0.97469694  0.95163703     0.97900
O3041       O  0.66377108  0.98513403  0.93012376    -0.82600
O3042       O  0.63372946  0.51145721  0.89297496    -0.85300
C3043       C  0.61120442  0.51172710  0.87643704     1.02400
O3044       O  0.59409850  0.98710768  0.85853973    -0.78100
O3045       O  0.54798673  0.93887062  0.89370261    -0.78200
C3046       C  0.53377675  0.91507570  0.91169002     1.02400
Cr3047     Cr  0.60179152  0.91629111  0.91924626     1.93700
Cr3048     Cr  0.65213109  0.98054634  0.88671952     1.93200
Cr3049     Cr  0.57748651  0.93572791  0.86414662     1.39100
O3050       O  0.61036117  0.94426771  0.89001093    -1.23300
O3051       O  0.59867473  0.70974430  0.86337695    -0.85600
O3052       O  0.55541431  0.71838903  0.89931640    -0.82600
C3053       C  0.53550285  0.72392390  0.88281057     0.97900
O3054       O  0.51118203  0.69964541  0.86882071    -0.82600
O3055       O  0.98235216  0.64660935  0.82994397    -0.85300
C3056       C  0.50501468  0.65792550  0.81037854     1.02400
O3057       O  0.53479334  0.66179937  0.81384792    -0.78000
O3058       O  0.59352807  0.66576562  0.83848453    -0.78200
C3059       C  0.61070544  0.69754611  0.84522348     1.02400
O3060       O  0.58926175  0.64865062  0.89462210    -0.85600
O3061       O  0.54370319  0.65662043  0.93063636    -0.82600
C3062       C  0.01369485  0.65361132  0.93706492     0.97900
O3063       O  0.99396519  0.65567811  0.91793237    -0.82600
O3064       O  0.97029068  0.60036275  0.87858034    -0.85300
C3065       C  0.96853397  0.58202182  0.85691624     1.02400
O3066       O  0.99106500  0.59483469  0.83710031    -0.78100
O3067       O  0.54876771  0.60429830  0.86932320    -0.78200
C3068       C  0.57546103  0.61735188  0.88525440     1.02400
Cr3069     Cr  0.56924772  0.68137766  0.89544761     1.93700
Cr3070     Cr  0.99210463  0.65068368  0.87357393     1.93200
Cr3071     Cr  0.54182821  0.63333623  0.84210732     1.39100
O3072       O  0.53483155  0.65508912  0.87123474    -1.23300
C3073       C  0.54125352  0.80708901  0.85406299    -0.06000
C3074       C  0.54793927  0.82607443  0.88013658    -0.00100
C3075       C  0.54680272  0.80973562  0.90723476    -0.08600
C3076       C  0.54361125  0.77688953  0.90677929    -0.06000
C3077       C  0.53893997  0.75865221  0.88074391    -0.00100
C3078       C  0.53561961  0.77298223  0.85391485    -0.08500
C3079       C  0.52709733  0.75297041  0.82512147     0.61800
H3080       H  0.54205830  0.81974593  0.83374757     0.12500
H3081       H  0.54439628  0.76485618  0.92702510     0.12500
C3082       C  0.54830222  0.82625052  0.93692707     0.62100
F3083       F  0.52955706  0.77331362  0.80156673    -0.23100
F3084       F  0.49350345  0.72534476  0.82558606    -0.20400
F3085       F  0.54974050  0.74083172  0.82065776    -0.20100
F3086       F  0.52388634  0.83654831  0.93755321    -0.20200
F3087       F  0.58084685  0.85430274  0.94263141    -0.18700
F3088       F  0.54082702  0.80318765  0.95951815    -0.23200
C3089       C  0.59066047  0.54455505  0.90547465    -0.06000
C3090       C  0.60519827  0.54125212  0.87933653    -0.00100
C3091       C  0.61577004  0.56716329  0.85799204    -0.08600
C3092       C  0.60938842  0.59461109  0.86275364    -0.06000
C3093       C  0.59237400  0.59645779  0.88785550    -0.00100
C3094       C  0.58314990  0.57136943  0.90974879    -0.08500
C3095       C  0.56418226  0.57234410  0.93675385     0.61800
H3096       H  0.58396156  0.52511837  0.92202618     0.12500
H3097       H  0.61553685  0.61367777  0.84591702     0.12500
C3098       C  0.63367553  0.56571881  0.83044783     0.62100
F3099       F  0.55953095  0.54700905  0.95641698    -0.23100
F3100       F  0.53190870  0.56719582  0.92883449    -0.20400
F3101       F  0.58306524  0.60425382  0.95059369    -0.20100
F3102       F  0.61581848  0.03967180  0.81543847    -0.20200
F3103       F  0.66351646  0.56522108  0.83794929    -0.20500
F3104       F  0.64288186  0.59407262  0.81289037    -0.23200
C3105       C  0.88028990  0.99936726  0.85975978    -0.06000
C3106       C  0.88906889  0.97500614  0.85010691    -0.00100
C3107       C  0.92286147  0.98601698  0.84011600    -0.08600
C3108       C  0.94806675  0.52152115  0.84237316    -0.06000
C3109       C  0.94001990  0.54583050  0.85394259    -0.00100
C3110       C  0.90523510  0.53522053  0.86133472    -0.08500
C3111       C  0.89460364  0.56033725  0.87332462     0.61800
H3112       H  0.85399789  0.99015620  0.86672048     0.12500
H3113       H  0.97455513  0.53021868  0.83614706     0.12500
C3114       C  0.93229983  0.96035388  0.82745676     0.62100
F3115       F  0.85891811  0.54524758  0.87489142    -0.23100
F3116       F  0.90650865  0.58881404  0.85551662    -0.20400
F3117       F  0.90823884  0.57107780  0.90121040    -0.20100
F3118       F  0.96515088  0.97682531  0.81563834    -0.20200
F3119       F  0.90883740  0.94092711  0.80549599    -0.20500
F3120       F  0.93146843  0.93848331  0.84903433    -0.23200
C3121       C  0.67041699  0.70830726  0.83958302    -0.06000
C3122       C  0.64668504  0.71982732  0.83526341    -0.00100
C3123       C  0.65889211  0.75414582  0.82603437    -0.08600
C3124       C  0.69480204  0.77738298  0.82590059    -0.06000
C3125       C  0.71863968  0.76704398  0.83408800    -0.00100
C3126       C  0.70646441  0.73136156  0.83865295    -0.08500
C3127       C  0.73104992  0.71752365  0.84297800     0.61800
H3128       H  0.66068626  0.68165396  0.84576632     0.12500
H3129       H  0.70430412  0.80437575  0.82113302     0.12500
C3130       C  0.63408103  0.76615825  0.81645359     0.62100
F3131       F  0.71431191  0.68205462  0.83823769    -0.23100
F3132       F  0.74424548  0.72449165  0.87122828    -0.20400
F3133       F  0.75803910  0.73271870  0.82341746    -0.20100
F3134       F  0.61732960  0.76959622  0.84040337    -0.20200
F3135       F  0.60986667  0.74227086  0.79694849    -0.20500
F3136       F  0.65120703  0.79775720  0.80260037    -0.23200
C3137       C  0.72722624  0.93593835  0.91372593    -0.06000
C3138       C  0.69523691  0.91723198  0.89915231    -0.00100
C3139       C  0.68813506  0.88812510  0.88175282    -0.08600
C3140       C  0.71431126  0.87992629  0.87797076    -0.06000
C3141       C  0.74732752  0.89956383  0.89114769    -0.00100
C3142       C  0.75351674  0.92742196  0.91046872    -0.08500
C3143       C  0.78738485  0.94858309  0.92735711     0.61800
H3144       H  0.73167766  0.95792035  0.92715329     0.12500
H3145       H  0.70893432  0.85777723  0.86439760     0.12500
C3146       C  0.65268474  0.86499262  0.86800798     0.62100
F3147       F  0.78688038  0.97354654  0.94516170    -0.23100
F3148       F  0.81441478  0.96534338  0.90818155    -0.20400
F3149       F  0.79335641  0.92712734  0.94505245    -0.20100
F3150       F  0.64258487  0.88429856  0.85154476    -0.20200
F3151       F  0.62917982  0.84835387  0.88996059    -0.20500
F3152       F  0.65229051  0.83996004  0.84979666    -0.23200
C3153       C  0.94610374  0.90814546  0.91102417    -0.06000
C3154       C  0.92554060  0.87471153  0.89903310    -0.00100
C3155       C  0.93926392  0.85220773  0.89751840    -0.08600
C3156       C  0.97411755  0.86506799  0.90604893    -0.06000
C3157       C  0.49609669  0.90029687  0.91561900    -0.00100
C3158       C  0.98060030  0.92074513  0.91984443    -0.08500
C3159       C  0.50228677  0.95917581  0.92981699     0.61800
H3160       H  0.93531648  0.92508973  0.91296460     0.12500
H3161       H  0.98589725  0.84932449  0.90229670     0.12500
C3162       C  0.91755496  0.81504011  0.88674072     0.62100
F3163       F  0.48301699  0.96519424  0.95013437    -0.23100
F3164       F  0.50938402  0.98141732  0.90668914    -0.20400
F3165       F  0.53305041  0.96626646  0.94333800    -0.20100
F3166       F  0.90973259  0.81443185  0.85736979    -0.20200
F3167       F  0.88715998  0.79837902  0.90237649    -0.20500
F3168       F  0.93484605  0.79677013  0.89017838    -0.23200
C3169       C  0.65326583  0.50266601  0.78326167    -0.06000
C3170       C  0.63706673  0.96852791  0.79170933    -0.00100
C3171       C  0.62425608  0.94277144  0.76910440    -0.08600
C3172       C  0.62747638  0.95321275  0.73969250    -0.06000
C3173       C  0.64223000  0.98812729  0.73208229    -0.00100
C3174       C  0.65597544  0.51325020  0.75406419    -0.08500
C3175       C  0.67425506  0.55189918  0.74789628     0.61800
H3176       H  0.66376468  0.52210853  0.80051021     0.12500
H3177       H  0.61749095  0.93391980  0.72225952     0.12500
C3178       C  0.60735966  0.90441679  0.77555879     0.62100
F3179       F  0.68897591  0.57186278  0.77290144    -0.23100
F3180       F  0.65077469  0.56058181  0.73670159    -0.20400
F3181       F  0.70060059  0.56052060  0.72820963    -0.20100
F3182       F  0.57484259  0.89273616  0.78712409    -0.20200
F3183       F  0.62771292  0.89875454  0.79513424    -0.20500
F3184       F  0.60337210  0.88499638  0.75055948    -0.23200
C3185       C  0.68517141  0.52088489  0.52278222    -0.06000
C3186       C  0.67082056  0.99261633  0.54267357    -0.00100
C3187       C  0.65225482  0.95842171  0.53076029    -0.08600
C3188       C  0.64531705  0.95391763  0.00046162    -0.06000
C3189       C  0.65645327  0.98236277  0.98195765    -0.00100
C3190       C  0.67653842  0.51670763  0.99274113    -0.08500
C3191       C  0.68775587  0.54797371  0.97348417     0.61800
H3192       H  0.70030489  0.54684628  0.53176381     0.12500
H3193       H  0.62981701  0.92818608  0.99102784     0.12500
C3194       C  0.63724912  0.92614940  0.54939617     0.62100
F3195       F  0.70536306  0.57874653  0.98925000    -0.23100
F3196       F  0.66238580  0.04725433  0.96031375    -0.20400
F3197       F  0.70946710  0.54826747  0.95195770    -0.20100
F3198       F  0.61035101  0.92384790  0.56584773    -0.20200
F3199       F  0.66275669  0.92732665  0.56757755    -0.20500
F3200       F  0.62412819  0.89617446  0.53253714    -0.23200
C3201       C  0.80091069  0.81863745  0.50937931    -0.06000
C3202       C  0.82731155  0.81124331  0.51602746    -0.00100
C3203       C  0.84157668  0.80082631  0.49299468    -0.08600
C3204       C  0.82679174  0.79709044  0.96444352    -0.06000
C3205       C  0.80522673  0.81050201  0.95722195    -0.00100
C3206       C  0.78903054  0.81857727  0.98011174    -0.08500
C3207       C  0.76113304  0.82782342  0.97455508     0.61800
H3208       H  0.78908089  0.82509468  0.52709356     0.12500
H3209       H  0.83816732  0.78973108  0.94699864     0.12500
C3210       C  0.86709669  0.78810928  0.49828903     0.62100
F3211       F  0.74112130  0.82032161  0.49883104    -0.23100
F3212       F  0.74220728  0.81162403  0.94941943    -0.20400
F3213       F  0.77624165  0.86327768  0.97194370    -0.20100
F3214       F  0.85479068  0.76323391  0.51976243    -0.20200
F3215       F  0.89913437  0.81551421  0.50665614    -0.20500
F3216       F  0.86186162  0.76295265  0.97526723    -0.23200
C3217       C  0.82815258  0.85416977  0.74882310    -0.06000
C3218       C  0.84030289  0.83884133  0.76887211    -0.00100
C3219       C  0.85441053  0.81879717  0.75794397    -0.08600
C3220       C  0.85583407  0.81504958  0.72733202    -0.06000
C3221       C  0.84414631  0.83090368  0.70721248    -0.00100
C3222       C  0.83005005  0.85095268  0.71833904    -0.08500
C3223       C  0.81851406  0.87041636  0.69847990     0.61800
H3224       H  0.81697162  0.86901592  0.75736106     0.12500
H3225       H  0.86674796  0.79995490  0.71879827     0.12500
C3226       C  0.86936503  0.80274585  0.77826892     0.62100
F3227       F  0.80771069  0.88996582  0.71401837    -0.23100
F3228       F  0.79099590  0.84719094  0.68102928    -0.20400
F3229       F  0.84596313  0.89279645  0.68134287    -0.20100
F3230       F  0.84320715  0.77696373  0.79440953    -0.20200
F3231       F  0.89361655  0.82794103  0.79695333    -0.20500
F3232       F  0.88565849  0.78812088  0.76303887    -0.23200
C3233       C  0.77006904  0.68896550  0.58427903    -0.06000
C3234       C  0.77864133  0.71157951  0.60860548    -0.00100
C3235       C  0.76245023  0.69792957  0.63586039    -0.08600
C3236       C  0.73852207  0.66239220  0.63746143    -0.06000
C3237       C  0.73027085  0.64006067  0.61330832    -0.00100
C3238       C  0.74614726  0.65322837  0.58620900    -0.08500
C3239       C  0.73906884  0.62942719  0.56002005     0.61800
H3240       H  0.78250735  0.69945638  0.56364627     0.12500
H3241       H  0.72579263  0.65144763  0.65792429     0.12500
C3242       C  0.77056175  0.71996781  0.66358091     0.62100
F3243       F  0.75860822  0.64721292  0.53614486    -0.23100
F3244       F  0.70444313  0.61368767  0.55197409    -0.20400
F3245       F  0.74723325  0.60429209  0.56713286    -0.20100
F3246       F  0.75931327  0.74352974  0.66031456    -0.20200
F3247       F  0.80587054  0.73726472  0.66937656    -0.20500
F3248       F  0.75420307  0.70021196  0.68777748    -0.23200
C3249       C  0.53505809  0.93944992  0.58120825    -0.06000
C3250       C  0.55347163  0.93171703  0.60221568    -0.00100
C3251       C  0.53803403  0.89706612  0.61243354    -0.08600
C3252       C  0.00433658  0.87282133  0.60213066    -0.06000
C3253       C  0.98492508  0.88200236  0.58385113    -0.00100
C3254       C  0.00122524  0.91513365  0.57126704    -0.08500
C3255       C  0.98220651  0.92457911  0.54882274     0.61800
H3256       H  0.54708412  0.96525263  0.57239373     0.12500
H3257       H  0.99131379  0.84731341  0.61158812     0.12500
C3258       C  0.55688265  0.88527421  0.63301554     0.62100
F3259       F  0.00395329  0.95620211  0.53618426    -0.23100
F3260       F  0.95528401  0.92639870  0.56172395    -0.20400
F3261       F  0.96886590  0.89959188  0.52687330    -0.20100
F3262       F  0.56131441  0.90092061  0.66015746    -0.20200
F3263       F  0.58884441  0.89373400  0.62177295    -0.20500
F3264       F  0.53855807  0.84976884  0.63683768    -0.23200
C3265       C  0.95434266  0.64597820  0.73817715    -0.06000
C3266       C  0.98220466  0.65964047  0.71856600    -0.00100
C3267       C  0.51726372  0.68139774  0.73100854    -0.08600
C3268       C  0.52250575  0.68318965  0.76142933    -0.06000
C3269       C  0.99414000  0.66398023  0.77947705    -0.00100
C3270       C  0.95957214  0.64697901  0.76852349    -0.08500
C3271       C  0.92829975  0.62737037  0.78795566     0.61800
H3272       H  0.92816354  0.63152123  0.72946511     0.12500
H3273       H  0.54865194  0.69762994  0.77018895     0.12500
C3274       C  0.54849855  0.70065488  0.71144816     0.62100
F3275       F  0.89730512  0.61477409  0.77260079    -0.23100
F3276       F  0.92869652  0.64908684  0.80987873    -0.20400
F3277       F  0.92893441  0.59939034  0.79996967    -0.20100
F3278       F  0.54223815  0.71999499  0.69143225    -0.20200
F3279       F  0.55516144  0.67736184  0.69694134    -0.20500
F3280       F  0.57808069  0.72322598  0.72727652    -0.23200
C3281       C  0.51708269  0.66312600  0.52201808    -0.06000
C3282       C  0.98288467  0.63614153  0.52826933    -0.00100
C3283       C  0.96069550  0.61422112  0.50498827    -0.08600
C3284       C  0.96957380  0.62510044  0.97562974    -0.06000
C3285       C  0.00392300  0.64897124  0.96869149    -0.00100
C3286       C  0.52849939  0.66845877  0.99300615    -0.08500
C3287       C  0.56559042  0.69654486  0.98724210     0.61800
H3288       H  0.53466770  0.67830291  0.53963018     0.12500
H3289       H  0.95191687  0.61095505  0.95771931     0.12500
C3290       C  0.92502342  0.58279973  0.51007659     0.62100
F3291       F  0.58206402  0.71556048  0.01228526    -0.23100
F3292       F  0.56592130  0.71920382  0.96664564    -0.20400
F3293       F  0.58434443  0.68169466  0.97713769    -0.20100
F3294       F  0.90360765  0.59308240  0.52291939    -0.20200
F3295       F  0.92810185  0.55946848  0.52775943    -0.20500
F3296       F  0.90899883  0.56546066  0.48428037    -0.23200
C3297       C  0.94513894  0.76448094  0.60489961    -0.06000
C3298       C  0.92988896  0.76623926  0.63125515    -0.00100
C3299       C  0.92205394  0.74063685  0.65251546    -0.08600
C3300       C  0.92773143  0.71298732  0.64592048    -0.06000
C3301       C  0.94037240  0.70987468  0.61862370    -0.00100
C3302       C  0.95042833  0.73661476  0.59818225    -0.08500
C3303       C  0.96642237  0.73544083  0.56937941     0.61800
H3304       H  0.95052737  0.78383619  0.58860375     0.12500
H3305       H  0.92182100  0.69337967  0.66212264     0.12500
C3306       C  0.90705828  0.74101458  0.68204421     0.62100
F3307       F  0.97459802  0.76406909  0.55250024    -0.23100
F3308       F  0.94338518  0.70612018  0.55361736    -0.20400
F3309       F  0.49643003  0.73511713  0.57567329    -0.20100
F3310       F  0.87375077  0.71311800  0.68365100    -0.20200
F3311       F  0.90603800  0.77104295  0.68716381    -0.20500
F3312       F  0.92721558  0.73835155  0.70387423    -0.23200
C3313       C  0.91586335  0.95473720  0.60495110    -0.06000
C3314       C  0.88128361  0.92954243  0.60985556    -0.00100
C3315       C  0.85518867  0.93897096  0.60753932    -0.08600
C3316       C  0.86547146  0.97430757  0.60436321    -0.06000
C3317       C  0.90041810  0.99962531  0.60120843    -0.00100
C3318       C  0.92546783  0.98909044  0.59873490    -0.08500
C3319       C  0.96292953  0.51303413  0.58882972     0.61800
H3320       H  0.93557491  0.94733346  0.60520487     0.12500
H3321       H  0.84653262  0.98264636  0.60587196     0.12500
C3322       C  0.81685087  0.91232013  0.60920505     0.62100
F3323       F  0.97052396  0.49823240  0.56545954    -0.23100
F3324       F  0.98507272  0.51747905  0.61189705    -0.20400
F3325       F  0.96890582  0.54513821  0.58009058    -0.20100
F3326       F  0.81030892  0.89308585  0.63421749    -0.20200
F3327       F  0.80696017  0.89049368  0.58502874    -0.20500
F3328       F  0.79647945  0.92762297  0.60971306    -0.23200
C3329       C  0.78535740  0.57353912  0.66574274    -0.06000
C3330       C  0.76216911  0.53807276  0.66127469    -0.00100
C3331       C  0.77548592  0.51532507  0.65753425    -0.08600
C3332       C  0.81170772  0.52953418  0.65585373    -0.06000
C3333       C  0.83461126  0.56544230  0.65731836    -0.00100
C3334       C  0.82139012  0.58774959  0.66364826    -0.08500
C3335       C  0.84491022  0.62657753  0.66748355     0.61800
H3336       H  0.77491311  0.59058127  0.66895807     0.12500
H3337       H  0.82222741  0.51278961  0.65134332     0.12500
C3338       C  0.75106090  0.97633796  0.65465174     0.62100
F3339       F  0.82753753  0.64178940  0.67994606    -0.23100
F3340       F  0.85691078  0.64156973  0.64060496    -0.20400
F3341       F  0.87268489  0.63346964  0.68562345    -0.20100
F3342       F  0.73377820  0.96829446  0.62799005    -0.20200
F3343       F  0.72721711  0.96451744  0.67697224    -0.20500
F3344       F  0.76940993  0.95893003  0.65614517    -0.23200
C3345       C  0.56862224  0.56607891  0.66778095    -0.06000
C3346       C  0.59471166  0.57970936  0.64690658    -0.00100
C3347       C  0.59592059  0.60414609  0.62678302    -0.08600
C3348       C  0.56949694  0.61256926  0.62708029    -0.06000
C3349       C  0.54192566  0.59762589  0.64691174    -0.00100
C3350       C  0.54228275  0.57483943  0.66855908    -0.08500
C3351       C  0.01356707  0.55694525  0.69063541     0.61800
H3352       H  0.56844369  0.54744642  0.68289097     0.12500
H3353       H  0.56997005  0.63059256  0.61116877     0.12500
C3354       C  0.62495463  0.62103048  0.60483932     0.62100
F3355       F  0.98150072  0.53682570  0.67726193    -0.23100
F3356       F  0.01330435  0.58243541  0.70783214    -0.20400
F3357       F  0.01921956  0.53574113  0.70902430    -0.20100
F3358       F  0.62343212  0.59631032  0.58554970    -0.20200
F3359       F  0.65655869  0.63681899  0.61947713    -0.20500
F3360       F  0.62286943  0.64605226  0.58873560    -0.23200
loop_ 
_geom_bond_atom_site_label_1 
_geom_bond_atom_site_label_2 
_geom_bond_distance 
_geom_bond_site_symmetry_2 
_ccdc_geom_bond_type 
O1          Cr19   1.964       .  S
O1            C9   1.250       .  A
O2          Cr19   2.046       .  S
O2            C3   1.277       .  A
C3            O4   1.253       .  A
C3          C361   1.484       .  S
O4          Cr20   1.952       .  S
O5          Cr20   2.032       .  S
O5            C6   1.272       .  A
C6            O7   1.258       .  A
C6          C326   1.489       .  S
O7          Cr21   1.948       .  S
O8          Cr21   2.032       .  S
O8            C9   1.265       .  A
C9          C393   1.488       .  S
O10         Cr19   2.060       .  S
O10          C18   1.280       .  A
O11         Cr19   1.961       .  S
O11          C12   1.251       .  A
C12          O13   1.275       .  A
C12         C342   1.513       .  S
O13         Cr20   2.050       .  S
O14       Cr1700   1.985   1_455  S
O14          C15   1.265       .  A
C15        O1696   1.264   1_455  A
C15         C409   1.502       .  S
O16         Cr21   2.022       .  S
O16        C1695   1.266       .  A
O17         Cr21   1.936       .  S
O17          C18   1.255       .  A
C18        C1217   1.480       .  S
Cr19         O22   1.758       .  S
Cr20       O1694   1.984       .  S
Cr20         O22   1.768       .  S
Cr21         O22   1.759       .  S
O23         Cr41   1.942       .  S
O23          C31   1.248       .  A
O24         Cr41   2.022       .  S
O24          C25   1.271       .  A
C25          O26   1.258       .  A
C25         C294   1.489       .  S
O26         Cr42   1.962       .  S
O27         Cr42   2.041       .  S
O27          C28   1.274       .  A
C28          O29   1.259       .  A
C28         C281   1.502       .  S
O29         Cr43   1.969       .  S
O30         Cr43   2.070       .  S
O30          C31   1.278       .  A
C31         C358   1.478       .  S
O32         Cr41   2.054       .  S
O32          C40   1.271       .  A
O33         Cr41   1.953       .  S
O33          C34   1.256       .  A
C34          O35   1.273       .  A
C34         C262   1.483       .  S
O35         Cr42   2.037       .  S
O36         Cr42   1.962       .  S
O36          C37   1.256       .  A
C37          O38   1.278       .  A
C37         C374   1.490       .  S
O38         Cr43   2.041       .  S
O39         Cr43   1.951       .  S
O39          C40   1.248       .  A
C40         C313   1.478       .  S
Cr41         O44   1.757       .  S
Cr42         O44   1.762       .  S
Cr43         O44   1.756       .  S
O45         Cr63   2.025       .  S
O45          C53   1.271       .  A
O46         Cr63   1.956       .  S
O46          C47   1.252       .  A
C47          O48   1.264       .  A
C47         C297   1.474       .  S
O48         Cr64   2.016       .  S
O49         Cr64   1.952       .  S
O49          C50   1.252       .  A
C50         O891   1.267   1_545  A
C50        C1086   1.490   1_545  S
O51         Cr65   2.031       .  S
O51         C890   1.267       .  A
O52        Cr905   1.976   1_545  S
O52          C53   1.261       .  A
C53         C390   1.487       .  S
O54         Cr63   1.962       .  S
O54         C902   1.254   1_545  A
O55         Cr63   2.038       .  S
O55          C56   1.272       .  A
C56          O57   1.256       .  A
C56         C406   1.477       .  S
O57         Cr64   1.956       .  S
O58        Cr904   2.026       .  S
O58          C59   1.273       .  A
C59          O60   1.267       .  A
C59         C310   1.503       .  S
O60         Cr65   1.988       .  S
O61         Cr65   2.039       .  S
O61          C62   1.272       .  A
C62         O894   1.254       .  A
C62         C233   1.495       .  S
Cr63         O66   1.762       .  S
Cr64        O898   2.025   1_545  S
Cr64         O66   1.761       .  S
Cr65        O892   1.975       .  S
Cr65        O906   1.776       .  S
O66        Cr905   1.777   1_545  S
O67         Cr85   2.017       .  S
O67          C75   1.270       .  A
O68         Cr85   1.963       .  S
O68          C69   1.257       .  A
C69          O70   1.262       .  A
C69         C201   1.495       .  S
O70         Cr86   2.015       .  S
O71         Cr86   1.965       .  S
O71          C72   1.256       .  A
C72          O73   1.271       .  A
C72         C265   1.488       .  S
O73         Cr87   2.020       .  S
O74         Cr87   1.972       .  S
O74          C75   1.260       .  A
C75         C185   1.489       .  S
O76         Cr85   1.967       .  S
O76          C84   1.258       .  A
O77         Cr85   2.022       .  S
O77          C78   1.269       .  A
C78          O79   1.254       .  A
C78         C166   1.464       .  S
O79         Cr86   1.952       .  S
O80         Cr86   1.999       .  S
O80          C81   1.265       .  A
C81          O82   1.267       .  A
C81         C214   1.481       .  S
O82         Cr87   1.992       .  S
O83         Cr87   2.035       .  S
O83          C84   1.269       .  A
C84         C278   1.498       .  S
Cr85         O88   1.764       .  S
Cr86         O88   1.767       .  S
Cr87         O88   1.770       .  S
O89        Cr107   1.913       .  S
O89          C97   1.239       .  A
O90        Cr107   2.028       .  S
O90          C91   1.271       .  A
C91          O92   1.263       .  A
C91         C198   1.472       .  S
O92        Cr108   1.973       .  S
O93        Cr108   2.036       .  S
O93          C94   1.274       .  A
C94          O95   1.256       .  A
C94         C230   1.501       .  S
O95        Cr109   1.971       .  S
O96        Cr109   2.080       .  S
O96          C97   1.279       .  A
C97         C134   1.478       .  S
O98        Cr107   2.046       .  S
O98         C106   1.269       .  A
O99        Cr107   1.949       .  S
O99         C100   1.256       .  A
C100        O101   1.270       .  A
C100        C249   1.472       .  S
O101       Cr108   2.032       .  S
O102       Cr948   1.959   1_545  S
O102        C103   1.258       .  A
C103        O944   1.278   1_545  A
C103        C150   1.477       .  S
O104       Cr109   2.041       .  S
O104        C943   1.278       .  A
O105       Cr109   1.945       .  S
O105        C106   1.246       .  A
C106        C217   1.476   1_455  S
Cr107       O110   1.749       .  S
Cr108       O942   1.960       .  S
Cr108       O110   1.759       .  S
Cr109       O110   1.761       .  S
O111       Cr129   1.966       .  S
O111        C119   1.251       .  A
O112       Cr129   2.038       .  S
O112        C113   1.277       .  A
C113        O114   1.248       .  A
C113        C137   1.480       .  S
O114      Cr1810   1.939   1_455  S
O115       Cr130   2.024       .  S
O115       C1796   1.271       .  A
C116        O117   1.259       .  A
C116       O1795   1.272   1_455  A
C116       C2009   1.486   1_455  S
O117       Cr131   1.953       .  S
O118       Cr131   2.028       .  S
O118        C119   1.263       .  A
C119        C182   1.479       .  S
O120       Cr129   2.059       .  S
O120        C128   1.280       .  A
O121       Cr129   1.972       .  S
O121       C1802   1.256       .  A
C122        O123   1.272       .  A
C122       O1801   1.258       .  A
C122        C345   1.500       .  S
O123       Cr130   2.035       .  S
O124       Cr130   1.967       .  S
O124        C125   1.257       .  A
C125        O126   1.266       .  A
C125        C169   1.474       .  S
O126      Cr1811   2.010       .  S
O127       Cr131   1.937       .  S
O127        C128   1.253       .  A
C128        C153   1.470       .  S
Cr129       O132   1.762       .  S
Cr130      O1794   1.940       .  S
Cr130      O1812   1.765       .  S
Cr131      O1806   2.012   1_455  S
Cr131       O132   1.762       .  S
O132      Cr1810   1.764   1_455  S
C133        C134   1.398       .  A
C133        C138   1.413       .  A
C133        H140   1.083       .  S
C134        C135   1.430       .  A
C135        C136   1.400       .  A
C135        C142   1.525       .  S
C136        C137   1.391       .  A
C136        H141   1.084       .  S
C137        C138   1.428       .  A
C138        C139   1.520       .  S
C139        F143   1.385       .  S
C139        F144   1.382   1_455  S
C139        F145   1.380       .  S
C142        F146   1.378       .  S
C142        F147   1.381       .  S
C142        F148   1.385       .  S
C149        C150   1.407       .  A
C149        C154   1.410       .  A
C149        H156   1.082       .  S
C150        C151   1.412       .  A
C151        C152   1.406       .  A
C151        C158   1.515       .  S
C152        C153   1.405       .  A
C152        H157   1.083       .  S
C153        C154   1.411       .  A
C154        C155   1.515       .  S
C155        F159   1.385       .  S
C155        F160   1.383       .  S
C155        F161   1.383       .  S
C158        F163   1.382       .  S
C158        F164   1.385       .  S
C158       F1002   1.383       .  S
F162        C998   1.383       .  S
C165        C166   1.399       .  A
C165       C1010   1.405       .  A
C165        H172   1.081       .  S
C166        C167   1.415       .  A
C167       C1008   1.400       .  A
C167        C174   1.519       .  S
C168        C169   1.403       .  A
C168       C1007   1.400   1_545  A
C168        H173   1.085       .  S
C169        C170   1.420       .  A
C170       C1005   1.405       .  A
C170        C171   1.521       .  S
C171        F175   1.385       .  S
C171        F176   1.382       .  S
C171        F177   1.383       .  S
C174        F178   1.384       .  S
C174        F179   1.382       .  S
C174        F180   1.383       .  S
C181        C182   1.402       .  A
C181        C186   1.410       .  A
C181        H188   1.084       .  S
C182        C183   1.414       .  A
C183        C184   1.405       .  A
C183        C190   1.515       .  S
C184        C185   1.405       .  A
C184        H189   1.083       .  S
C185        C186   1.423       .  A
C186        C187   1.519       .  S
C187        F191   1.385       .  S
C187        F192   1.383       .  S
C187        F193   1.384       .  S
C190        F194   1.380       .  S
C190        F195   1.383       .  S
C190        F196   1.385       .  S
C197        C198   1.400       .  A
C197        C202   1.412       .  A
C197        H204   1.083       .  S
C198        C199   1.410       .  A
C199        C200   1.399       .  A
C199        C206   1.515       .  S
C200        C201   1.408       .  A
C200        H205   1.082       .  S
C201        C202   1.427       .  A
C202        C203   1.519       .  S
C203        F207   1.385       .  S
C203        F208   1.380       .  S
C203        F209   1.382       .  S
C206        F210   1.382       .  S
C206        F211   1.381       .  S
C206        F212   1.382       .  S
C213        C214   1.405       .  A
C213        C218   1.401       .  A
C213        H220   1.085       .  S
C214        C215   1.417       .  A
C215        C216   1.410       .  A
C215        C222   1.517       .  S
C216       C1897   1.405       .  A
C216        H221   1.082       .  S
C217       C1896   1.406       .  A
C217       C1898   1.416       .  A
C218       C1897   1.415       .  A
C218       C1899   1.516       .  S
C219       C1898   1.518   1_455  S
C219        F223   1.384   1_455  S
C219        F224   1.384       .  S
C219        F225   1.383       .  S
C222        F226   1.382       .  S
C222        F227   1.383       .  S
C222        F228   1.385       .  S
C229        C234   1.405       .  A
C229       C1070   1.403   1_545  A
C229        H236   1.083       .  S
C230        C231   1.427       .  A
C230       C1069   1.403       .  A
C231        C232   1.415       .  A
C231        C238   1.519       .  S
C232        C233   1.404       .  A
C232        H237   1.086       .  S
C233       C1074   1.426       .  A
C234       C1073   1.425   1_545  A
C234        C235   1.524       .  S
C235        F239   1.385       .  S
C235        F240   1.383       .  S
C235        F241   1.381       .  S
C238        F242   1.383       .  S
C238        F243   1.383       .  S
C238        F244   1.385       .  S
C245       C1086   1.415   1_545  A
C245        C670   1.405   1_554  A
C245        H252   1.082       .  S
C246        C890   1.491       .  S
C246        C247   1.422       .  A
C246       C1085   1.415       .  A
C247        C668   1.403   1_554  A
C247        C254   1.520       .  S
C248        C249   1.403       .  A
C248        C667   1.403       .  A
C248        H253   1.084       .  S
C249       C1090   1.407       .  A
C250        C665   1.405       .  A
C250       C1089   1.406   1_545  A
C250        C251   1.517       .  S
C251        F255   1.384       .  S
C251        F257   1.382       .  S
C251       F1096   1.384       .  S
C254        F258   1.381       .  S
C254        F259   1.383       .  S
C254        F260   1.385       .  S
F256       C1091   1.384       .  S
C261        C262   1.403       .  A
C261        C686   1.409   1_554  A
C261        H268   1.084       .  S
C262        C263   1.423   1_554  A
C263        C684   1.402       .  A
C263        C270   1.523   1_556  S
C264        C265   1.404       .  A
C264        C683   1.402       .  A
C264        H269   1.082       .  S
C265        C266   1.421       .  A
C266        C681   1.409       .  A
C266        C267   1.517       .  S
C267        F272   1.384       .  S
C267        F273   1.382       .  S
C267        F691   1.385       .  S
C270        F274   1.383       .  S
C270        F275   1.383       .  S
C270        F696   1.385   1_554  S
F271        C687   1.385   1_554  S
F276        C690   1.385       .  S
C277        C278   1.407       .  A
C277        C282   1.409       .  A
C277        H284   1.083       .  S
C278        C279   1.418       .  A
C279        C280   1.415       .  A
C279        C286   1.518       .  S
C280        C281   1.412       .  A
C280        H285   1.083       .  S
C281        C282   1.422       .  A
C282        C283   1.518       .  S
C283        F287   1.385       .  S
C283        F288   1.383       .  S
C283        F289   1.383       .  S
C286        F290   1.382       .  S
C286        F291   1.383       .  S
C286        F292   1.385       .  S
C293        C294   1.411       .  A
C293        C298   1.409       .  A
C293        H300   1.083       .  S
C294        C295   1.425       .  A
C295        C296   1.403       .  A
C295        C302   1.524       .  S
C296        C297   1.400       .  A
C296        H301   1.084       .  S
C297        C298   1.411       .  A
C298        C299   1.517       .  S
C299        F303   1.384       .  S
C299        F304   1.382       .  S
C299        F305   1.383       .  S
C302        F306   1.383       .  S
C302        F307   1.384       .  S
C302        F308   1.385       .  S
C309        C310   1.412       .  A
C309       C1994   1.409       .  A
C309        H316   1.081       .  S
C310        C311   1.426       .  A
C311       C1992   1.413       .  A
C311        C318   1.520       .  S
C312        C313   1.403       .  A
C312       C1991   1.413       .  A
C312        H317   1.081       .  S
C313        C314   1.411       .  A
C314       C1989   1.409       .  A
C314        C315   1.518       .  S
C315        F319   1.384       .  S
C315        F320   1.381       .  S
C315        F321   1.383       .  S
C318        F322   1.383       .  S
C318        F323   1.383       .  S
C318        F324   1.385       .  S
C325        C326   1.410       .  A
C325        C330   1.402       .  A
C325        H332   1.081       .  S
C326       C2007   1.418       .  A
C327        C328   1.405       .  A
C327       C2006   1.419   1_455  A
C327        C334   1.520       .  S
C328       C2009   1.408   1_455  A
C328        H333   1.082       .  S
C329       C1796   1.485       .  S
C329        C330   1.418       .  A
C329       C2008   1.408       .  A
C330        C331   1.520       .  S
C331        F335   1.385       .  S
C331        F336   1.383       .  S
C331        F337   1.383       .  S
C334        F338   1.384       .  S
C334        F339   1.383       .  S
C334        F340   1.385       .  S
C341       C2022   1.408   1_455  A
C341        C766   1.416   1_554  A
C341        H348   1.082       .  S
C342        C343   1.436       .  A
C342       C2021   1.407       .  A
C343        C764   1.413   1_554  A
C343        C350   1.524       .  S
C344        C345   1.399       .  A
C344        C763   1.414       .  A
C344        H349   1.083       .  S
C345       C2026   1.423       .  A
C346        C761   1.416       .  A
C346       C2025   1.423       .  A
C346        C347   1.520       .  S
C347        F351   1.385       .  S
C347        F352   1.383       .  S
C347        F353   1.383       .  S
C350        F354   1.383       .  S
C350        F355   1.384       .  S
C350        F356   1.385   1_554  S
C357        C358   1.410       .  A
C357        C362   1.411       .  A
C357        H364   1.079       .  S
C358        C359   1.413       .  A
C359        C360   1.410       .  A
C359        C366   1.516       .  S
C360        C361   1.408       .  A
C360        H365   1.079       .  S
C361        C362   1.411       .  A
C362        C363   1.516       .  S
C363        F367   1.385       .  S
C363        F368   1.383       .  S
C363       F2049   1.383       .  S
C366        F370   1.382       .  S
C366        F371   1.383       .  S
C366        F372   1.383       .  S
F369       C2043   1.383       .  S
C373        C374   1.401       .  A
C373        C378   1.403       .  A
C373        H380   1.084       .  S
C374        C375   1.427       .  A
C375        C376   1.415       .  A
C375        C382   1.519       .  S
C376        C377   1.402       .  A
C376        H381   1.083       .  S
C377        C858   1.480       .  S
C377        C378   1.419       .  A
C378       C1219   1.519       .  S
C379       C1218   1.519   1_545  S
C379        F383   1.384   1_545  S
C379        F384   1.382       .  S
C379        F385   1.384       .  S
C382        F386   1.380       .  S
C382        F387   1.383       .  S
C382        F388   1.385       .  S
C389        C390   1.402       .  A
C389        C394   1.406       .  A
C389        H396   1.083       .  S
C390        C391   1.420       .  A
C391        C392   1.412       .  A
C391       C1238   1.517   1_545  S
C392        C393   1.405       .  A
C392        H397   1.083       .  S
C393        C394   1.421       .  A
C394        C395   1.518       .  S
C395        F399   1.385       .  S
C395        F400   1.382       .  S
C395        F401   1.383       .  S
C398       C1231   1.518       .  S
C398        F402   1.382       .  S
C398        F403   1.384       .  S
C398        F404   1.385       .  S
C405        C406   1.397       .  A
C405        C410   1.413       .  A
C405        H412   1.083       .  S
C406        C407   1.414       .  A
C407        C408   1.405       .  A
C407        C414   1.518       .  S
C408        C409   1.408       .  A
C408        H413   1.082       .  S
C409        C410   1.432       .  A
C410       C2091   1.521       .  S
C411       C2090   1.520       .  S
C411        F415   1.383       .  S
C411        F416   1.384       .  S
C411        F417   1.385       .  S
C414        F418   1.382       .  S
C414        F419   1.382       .  S
C414        F420   1.385       .  S
O421       Cr439   1.964       .  S
O421        C429   1.250       .  A
O422       Cr439   2.044       .  S
O422        C423   1.277       .  A
C423        O424   1.252       .  A
C423        C781   1.483       .  S
O424       Cr440   1.952       .  S
O425       Cr440   2.031       .  S
O425        C426   1.272       .  A
C426        O427   1.258       .  A
C426        C746   1.489       .  S
O427       Cr441   1.949       .  S
O428       Cr441   2.027       .  S
O428        C429   1.264       .  A
C429        C813   1.485       .  S
O430       Cr439   2.059       .  S
O430        C438   1.280       .  A
O431       Cr439   1.964       .  S
O431        C432   1.252       .  A
C432        O433   1.275       .  A
C432        C762   1.514       .  S
O433       Cr440   2.048       .  S
O434      Cr2120   1.985   1_455  S
O434        C435   1.264       .  A
C435       O2116   1.264   1_455  A
C435        C829   1.501       .  S
O436       Cr441   2.018       .  S
O436       C2115   1.265       .  A
O437       Cr441   1.935       .  S
O437        C438   1.255       .  A
C438       C1637   1.480   1_545  S
Cr439       O442   1.759       .  S
Cr440      O2114   1.984       .  S
Cr440       O442   1.768       .  S
Cr441       O442   1.760       .  S
O443       Cr461   1.942       .  S
O443        C451   1.248       .  A
O444       Cr461   2.021       .  S
O444        C445   1.270       .  A
C445        O446   1.258       .  A
C445        C714   1.488       .  S
O446       Cr462   1.964       .  S
O447       Cr462   2.039       .  S
O447        C448   1.273       .  A
C448        O449   1.258       .  A
C448        C701   1.501       .  S
O449       Cr463   1.968       .  S
O450       Cr463   2.070       .  S
O450        C451   1.278       .  A
C451        C778   1.477       .  S
O452       Cr461   2.054       .  S
O452        C460   1.271       .  A
O453       Cr461   1.953       .  S
O453        C454   1.256       .  A
C454        O455   1.274       .  A
C454        C682   1.484       .  S
O455       Cr462   2.037       .  S
O456       Cr462   1.963       .  S
O456        C457   1.256       .  A
C457        O458   1.278       .  A
C457        C794   1.489       .  S
O458       Cr463   2.040       .  S
O459       Cr463   1.951       .  S
O459        C460   1.248       .  A
C460        C733   1.479       .  S
Cr461       O464   1.756       .  S
Cr462       O464   1.762       .  S
Cr463       O464   1.756       .  S
O465       Cr483   2.025       .  S
O465        C473   1.272       .  A
O466       Cr483   1.956       .  S
O466        C467   1.252       .  A
C467        O468   1.264       .  A
C467        C717   1.475       .  S
O468       Cr484   2.017       .  S
O469       Cr484   1.953       .  S
O469        C470   1.252       .  A
C470       O1311   1.267   1_545  A
C470       C1506   1.491   1_545  S
O471       Cr485   2.031       .  S
O471       C1310   1.267       .  A
O472      Cr1325   1.973   1_545  S
O472        C473   1.260       .  A
C473        C810   1.486       .  S
O474       Cr483   1.963       .  S
O474       C1322   1.254   1_545  A
O475       Cr483   2.038       .  S
O475        C476   1.272       .  A
C476        O477   1.256       .  A
C476        C826   1.476       .  S
O477       Cr484   1.955       .  S
O478      Cr1324   2.025       .  S
O478        C479   1.273       .  A
C479        O480   1.267       .  A
C479        C730   1.503       .  S
O480       Cr485   1.989       .  S
O481       Cr485   2.039       .  S
O481        C482   1.271       .  A
C482       O1314   1.254       .  A
C482        C653   1.493       .  S
Cr483       O486   1.762       .  S
Cr484      O1318   2.025   1_545  S
Cr484       O486   1.761       .  S
Cr485      O1312   1.975       .  S
Cr485      O1326   1.776       .  S
O486      Cr1325   1.776   1_545  S
O487       Cr505   2.017       .  S
O487        C495   1.270       .  A
O488       Cr505   1.962       .  S
O488        C489   1.257       .  A
C489        O490   1.262       .  A
C489        C621   1.494       .  S
O490       Cr506   2.015       .  S
O491       Cr506   1.964       .  S
O491        C492   1.256       .  A
C492        O493   1.272       .  A
C492        C685   1.489       .  S
O493       Cr507   2.022       .  S
O494       Cr507   1.973       .  S
O494        C495   1.260       .  A
C495        C605   1.490       .  S
O496       Cr505   1.965       .  S
O496        C504   1.258       .  A
O497       Cr505   2.024       .  S
O497        C498   1.269       .  A
C498        O499   1.254       .  A
C498        C586   1.465       .  S
O499       Cr506   1.953       .  S
O500       Cr506   1.997       .  S
O500        C501   1.264       .  A
C501        O502   1.266       .  A
C501        C634   1.480       .  S
O502       Cr507   1.992       .  S
O503       Cr507   2.035       .  S
O503        C504   1.269       .  A
C504        C698   1.497       .  S
Cr505       O508   1.763       .  S
Cr506       O508   1.766       .  S
Cr507       O508   1.769       .  S
O509       Cr527   1.914       .  S
O509        C517   1.240       .  A
O510       Cr527   2.027       .  S
O510        C511   1.271       .  A
C511        O512   1.263       .  A
C511        C618   1.471       .  S
O512       Cr528   1.972       .  S
O513       Cr528   2.033       .  S
O513        C514   1.274       .  A
C514        O515   1.255       .  A
C514        C650   1.500       .  S
O515       Cr529   1.969       .  S
O516       Cr529   2.080       .  S
O516        C517   1.279       .  A
C517        C554   1.479       .  S
O518       Cr527   2.044       .  S
O518        C526   1.269       .  A
O519       Cr527   1.948       .  S
O519        C520   1.256       .  A
C520        O521   1.270       .  A
C520        C669   1.472       .  S
O521       Cr528   2.031       .  S
O522      Cr1368   1.959   1_545  S
O522        C523   1.258       .  A
C523       O1364   1.278   1_545  A
C523        C570   1.478       .  S
O524       Cr529   2.042       .  S
O524       C1363   1.278       .  A
O525       Cr529   1.946       .  S
O525        C526   1.246       .  A
C526        C637   1.475   1_455  S
Cr527       O530   1.749       .  S
Cr528      O1362   1.960       .  S
Cr528       O530   1.760       .  S
Cr529       O530   1.761       .  S
O531       Cr549   1.966       .  S
O531        C539   1.251       .  A
O532       Cr549   2.039       .  S
O532        C533   1.277       .  A
C533        O534   1.248       .  A
C533        C557   1.480       .  S
O534      Cr2230   1.940   1_455  S
O535       Cr550   2.024       .  S
O535       C2216   1.271       .  A
C536       O2215   1.272   1_455  A
C536        O537   1.259       .  A
C536       C2429   1.485   1_455  S
O537       Cr551   1.952       .  S
O538       Cr551   2.029       .  S
O538        C539   1.264       .  A
C539        C602   1.479       .  S
O540       Cr549   2.062       .  S
O540        C548   1.281       .  A
O541       Cr549   1.973       .  S
O541       C2222   1.257       .  A
C542       O2221   1.257       .  A
C542        O543   1.273       .  A
C542        C765   1.499       .  S
O543       Cr550   2.036       .  S
O544       Cr550   1.968       .  S
O544        C545   1.257       .  A
C545        O546   1.266       .  A
C545        C589   1.476       .  S
O546      Cr2231   2.012       .  S
O547       Cr551   1.936       .  S
O547        C548   1.253       .  A
C548        C573   1.470       .  S
Cr549       O552   1.761       .  S
Cr550      O2214   1.941       .  S
Cr550      O2232   1.765       .  S
Cr551      O2226   2.014   1_455  S
Cr551       O552   1.762       .  S
O552      Cr2230   1.764   1_455  S
C553        C554   1.398       .  A
C553        C558   1.413       .  A
C553        H560   1.083       .  S
C554        C555   1.430       .  A
C555        C556   1.400       .  A
C555        C562   1.525       .  S
C556        C557   1.391       .  A
C556        H561   1.084       .  S
C557        C558   1.428       .  A
C558        C559   1.520       .  S
C559        F563   1.385       .  S
C559        F564   1.382   1_455  S
C559        F565   1.380       .  S
C562        F566   1.379       .  S
C562        F567   1.381       .  S
C562        F568   1.385       .  S
C569        C570   1.406       .  A
C569        C574   1.409       .  A
C569        H576   1.081       .  S
C570        C571   1.412       .  A
C571        C572   1.407       .  A
C571        C578   1.515       .  S
C572        C573   1.405       .  A
C572        H577   1.083       .  S
C573        C574   1.411       .  A
C574        C575   1.516       .  S
C575        F579   1.384       .  S
C575        F580   1.384       .  S
C575        F581   1.383       .  S
C578       F1422   1.383       .  S
C578        F583   1.382       .  S
C578        F584   1.385       .  S
F582       C1418   1.383       .  S
C585        C586   1.399       .  A
C585       C1430   1.405       .  A
C585        H592   1.081       .  S
C586        C587   1.415       .  A
C587       C1428   1.401       .  A
C587        C594   1.519       .  S
C588       C1427   1.401   1_545  A
C588        C589   1.403       .  A
C588        H593   1.085       .  S
C589        C590   1.420       .  A
C590       C1425   1.406       .  A
C590        C591   1.521       .  S
C591        F595   1.385       .  S
C591        F596   1.382       .  S
C591        F597   1.383       .  S
C594        F598   1.384       .  S
C594        F599   1.382       .  S
C594        F600   1.383       .  S
C601        C602   1.402       .  A
C601        C606   1.410       .  A
C601        H608   1.084       .  S
C602        C603   1.414       .  A
C603        C604   1.405       .  A
C603        C610   1.515       .  S
C604        C605   1.406       .  A
C604        H609   1.083       .  S
C605        C606   1.424       .  A
C606        C607   1.519       .  S
C607        F611   1.385       .  S
C607        F612   1.383       .  S
C607        F613   1.384       .  S
C610        F614   1.380       .  S
C610        F615   1.383       .  S
C610        F616   1.385       .  S
C617        C618   1.400       .  A
C617        C622   1.412       .  A
C617        H624   1.083       .  S
C618        C619   1.410       .  A
C619        C620   1.399       .  A
C619        C626   1.515       .  S
C620        C621   1.408       .  A
C620        H625   1.082       .  S
C621        C622   1.427       .  A
C622        C623   1.519       .  S
C623        F627   1.385       .  S
C623        F628   1.380       .  S
C623        F629   1.382       .  S
C626        F630   1.383       .  S
C626        F631   1.381       .  S
C626        F632   1.383       .  S
C633        C634   1.405       .  A
C633        C638   1.401       .  A
C633        H640   1.085       .  S
C634        C635   1.416       .  A
C635        C636   1.409       .  A
C635        C642   1.517       .  S
C636       C2317   1.405       .  A
C636        H641   1.081       .  S
C637       C2316   1.406       .  A
C637       C2318   1.416       .  A
C638       C2317   1.416       .  A
C638       C2319   1.517       .  S
C639       C2318   1.517   1_455  S
C639        F643   1.384   1_455  S
C639        F644   1.383       .  S
C639        F645   1.383       .  S
C642        F646   1.382       .  S
C642        F647   1.383       .  S
C642        F648   1.385       .  S
C649       C1490   1.403   1_545  A
C649        C654   1.405       .  A
C649        H656   1.083       .  S
C650       C1489   1.403       .  A
C650        C651   1.426       .  A
C651        C652   1.414       .  A
C651        C658   1.519       .  S
C652        C653   1.404       .  A
C652        H657   1.084       .  S
C653       C1494   1.425       .  A
C654       C1493   1.425   1_545  A
C654        C655   1.524       .  S
C655        F659   1.385       .  S
C655        F660   1.383       .  S
C655        F661   1.381       .  S
C658        F662   1.383       .  S
C658        F663   1.383       .  S
C658        F664   1.385       .  S
C665       C1506   1.415   1_545  A
C665        H672   1.082       .  S
C666       C1310   1.491       .  S
C666       C1505   1.414       .  A
C666        C667   1.422       .  A
C667        C674   1.520       .  S
C668        C669   1.403       .  A
C668        H673   1.084       .  S
C669       C1510   1.407       .  A
C670       C1509   1.406   1_545  A
C670        C671   1.517       .  S
C671        F675   1.384       .  S
C671       F1516   1.384       .  S
C671        F677   1.382       .  S
C674        F678   1.381       .  S
C674        F679   1.383       .  S
C674        F680   1.385       .  S
F676       C1511   1.384       .  S
C681        C682   1.404       .  A
C681        H688   1.084       .  S
C682        C683   1.423       .  A
C683        C690   1.524       .  S
C684        C685   1.404       .  A
C684        H689   1.082       .  S
C685        C686   1.422       .  A
C686        C687   1.517       .  S
C687        F692   1.384       .  S
C687        F693   1.381       .  S
C690        F694   1.384       .  S
C690        F695   1.383       .  S
C697        C698   1.407       .  A
C697        C702   1.408       .  A
C697        H704   1.083       .  S
C698        C699   1.418       .  A
C699        C700   1.414       .  A
C699        C706   1.518       .  S
C700        C701   1.412       .  A
C700        H705   1.083       .  S
C701        C702   1.421       .  A
C702        C703   1.519       .  S
C703        F707   1.385       .  S
C703        F708   1.383       .  S
C703        F709   1.383       .  S
C706        F710   1.382       .  S
C706        F711   1.383       .  S
C706        F712   1.385       .  S
C713        C714   1.410       .  A
C713        C718   1.409       .  A
C713        H720   1.083       .  S
C714        C715   1.424       .  A
C715        C716   1.403       .  A
C715        C722   1.524       .  S
C716        C717   1.401       .  A
C716        H721   1.084       .  S
C717        C718   1.411       .  A
C718        C719   1.517       .  S
C719        F723   1.385       .  S
C719        F724   1.382       .  S
C719        F725   1.383       .  S
C722        F726   1.383       .  S
C722        F727   1.384       .  S
C722        F728   1.385       .  S
C729        C730   1.412       .  A
C729       C2414   1.409       .  A
C729        H736   1.081       .  S
C730        C731   1.426       .  A
C731       C2412   1.413       .  A
C731        C738   1.520       .  S
C732       C2411   1.413       .  A
C732        C733   1.403       .  A
C732        H737   1.081       .  S
C733        C734   1.411       .  A
C734       C2409   1.409       .  A
C734        C735   1.518       .  S
C735        F739   1.384       .  S
C735        F740   1.381       .  S
C735        F741   1.383       .  S
C738        F742   1.383       .  S
C738        F743   1.383       .  S
C738        F744   1.385       .  S
C745        C746   1.409       .  A
C745        C750   1.402       .  A
C745        H752   1.081       .  S
C746       C2427   1.419       .  A
C747       C2426   1.419   1_455  A
C747        C748   1.404       .  A
C747        C754   1.520       .  S
C748       C2429   1.408   1_455  A
C748        H753   1.081       .  S
C749       C2216   1.485       .  S
C749       C2428   1.408       .  A
C749        C750   1.418       .  A
C750        C751   1.520       .  S
C751        F755   1.385       .  S
C751        F756   1.383       .  S
C751        F757   1.383       .  S
C754        F758   1.383       .  S
C754        F759   1.383       .  S
C754        F760   1.385       .  S
C761       C2442   1.408   1_455  A
C761        H768   1.082       .  S
C762       C2441   1.408       .  A
C762        C763   1.436       .  A
C763        C770   1.524       .  S
C764        C765   1.399       .  A
C764        H769   1.083       .  S
C765       C2446   1.424       .  A
C766       C2445   1.423       .  A
C766        C767   1.520       .  S
C767        F771   1.385   1_556  S
C767        F772   1.383       .  S
C767        F773   1.382       .  S
C770        F774   1.383       .  S
C770        F775   1.384       .  S
C770        F776   1.385       .  S
C777        C778   1.410       .  A
C777        C782   1.411       .  A
C777        H784   1.079       .  S
C778        C779   1.413       .  A
C779        C780   1.411       .  A
C779        C786   1.516       .  S
C780        C781   1.409       .  A
C780        H785   1.080       .  S
C781        C782   1.410       .  A
C782        C783   1.516       .  S
C783        F787   1.384       .  S
C783        F788   1.383       .  S
C783       F2469   1.383       .  S
C786        F790   1.382       .  S
C786        F791   1.383       .  S
C786        F792   1.384       .  S
F789       C2463   1.383       .  S
C793        C794   1.400       .  A
C793        C798   1.403       .  A
C793        H800   1.084       .  S
C794        C795   1.426       .  A
C795        C796   1.415       .  A
C795        C802   1.518       .  S
C796        C797   1.402       .  A
C796        H801   1.083       .  S
C797       C1278   1.481       .  S
C797        C798   1.419       .  A
C798       C1639   1.519       .  S
C799       C1638   1.519   1_545  S
C799        F803   1.383   1_545  S
C799        F804   1.382       .  S
C799        F805   1.384       .  S
C802        F806   1.380       .  S
C802        F807   1.383       .  S
C802        F808   1.385       .  S
C809        C810   1.402       .  A
C809        C814   1.405       .  A
C809        H816   1.083       .  S
C810        C811   1.421       .  A
C811        C812   1.411       .  A
C811       C1658   1.518   1_545  S
C812        C813   1.404       .  A
C812        H817   1.083       .  S
C813        C814   1.419       .  A
C814        C815   1.518       .  S
C815        F819   1.385       .  S
C815        F820   1.382       .  S
C815        F821   1.383       .  S
C818       C1651   1.518       .  S
C818        F822   1.382       .  S
C818        F823   1.383       .  S
C818        F824   1.385       .  S
C825        C826   1.397       .  A
C825        C830   1.412       .  A
C825        H832   1.083       .  S
C826        C827   1.414       .  A
C827        C828   1.405       .  A
C827        C834   1.518       .  S
C828        C829   1.408       .  A
C828        H833   1.082       .  S
C829        C830   1.432       .  A
C830       C2511   1.521       .  S
C831       C2510   1.521       .  S
C831        F835   1.383       .  S
C831        F836   1.384       .  S
C831        F837   1.385       .  S
C834        F838   1.382       .  S
C834        F839   1.382       .  S
C834        F840   1.385       .  S
O841       Cr859   1.963       .  S
O841        C849   1.249       .  A
O842       Cr859   2.046       .  S
O842        C843   1.277       .  A
C843        O844   1.252       .  A
C843       C1201   1.484       .  S
O844       Cr860   1.951       .  S
O845       Cr860   2.031       .  S
O845        C846   1.272       .  A
C846        O847   1.258       .  A
C846       C1166   1.489       .  S
O847       Cr861   1.950       .  S
O848       Cr861   2.031       .  S
O848        C849   1.265       .  A
C849       C1233   1.488       .  S
O850       Cr859   2.060       .  S
O850        C858   1.281       .  A
O851       Cr859   1.962       .  S
O851        C852   1.251       .  A
C852        O853   1.275       .  A
C852       C1182   1.514       .  S
O853       Cr860   2.048       .  S
O854      Cr2540   1.983   1_455  S
O854        C855   1.265       .  A
C855       O2536   1.266   1_455  A
C855       C1249   1.502       .  S
O856       Cr861   2.021       .  S
O856       C2535   1.266       .  A
O857       Cr861   1.935       .  S
O857        C858   1.255       .  A
Cr859       O862   1.759       .  S
Cr860      O2534   1.983       .  S
Cr860       O862   1.769       .  S
Cr861       O862   1.759       .  S
O863       Cr881   1.942       .  S
O863        C871   1.248       .  A
O864       Cr881   2.021       .  S
O864        C865   1.270       .  A
C865        O866   1.258       .  A
C865       C1134   1.490       .  S
O866       Cr882   1.964       .  S
O867       Cr882   2.041       .  S
O867        C868   1.274       .  A
C868        O869   1.258       .  A
C868       C1121   1.501       .  S
O869       Cr883   1.967       .  S
O870       Cr883   2.070       .  S
O870        C871   1.278       .  A
C871       C1198   1.477       .  S
O872       Cr881   2.054       .  S
O872        C880   1.271       .  A
O873       Cr881   1.953       .  S
O873        C874   1.256       .  A
C874        O875   1.274       .  A
C874       C1102   1.483       .  S
O875       Cr882   2.036       .  S
O876       Cr882   1.963       .  S
O876        C877   1.256       .  A
C877        O878   1.278       .  A
C877       C1214   1.490       .  S
O878       Cr883   2.041       .  S
O879       Cr883   1.951       .  S
O879        C880   1.248       .  A
C880       C1153   1.478       .  S
Cr881       O884   1.757       .  S
Cr882       O884   1.762       .  S
Cr883       O884   1.756       .  S
O885       Cr903   2.025       .  S
O885        C893   1.271       .  A
O886       Cr903   1.958       .  S
O886        C887   1.252       .  A
C887        O888   1.264       .  A
C887       C1137   1.474       .  S
O888       Cr904   2.016       .  S
O889       Cr904   1.953       .  S
O889        C890   1.252       .  A
O891       Cr905   2.029       .  S
O892        C893   1.261       .  A
C893       C1230   1.487       .  S
O894       Cr903   1.964       .  S
O895       Cr903   2.038       .  S
O895        C896   1.272       .  A
C896        O897   1.256       .  A
C896       C1246   1.477       .  S
O897       Cr904   1.956       .  S
O898        C899   1.273       .  A
C899        O900   1.267       .  A
C899       C1150   1.505       .  S
O900       Cr905   1.990       .  S
O901       Cr905   2.039       .  S
O901        C902   1.271       .  A
C902       C1073   1.492       .  S
Cr903       O906   1.763       .  S
Cr904       O906   1.762       .  S
O907       Cr925   2.018       .  S
O907        C915   1.270       .  A
O908       Cr925   1.962       .  S
O908        C909   1.257       .  A
C909        O910   1.262       .  A
C909       C1041   1.495       .  S
O910       Cr926   2.016       .  S
O911       Cr926   1.962       .  S
O911        C912   1.256       .  A
C912        O913   1.272       .  A
C912       C1105   1.489       .  S
O913       Cr927   2.023       .  S
O914       Cr927   1.972       .  S
O914        C915   1.260       .  A
C915       C1025   1.491       .  S
O916       Cr925   1.965       .  S
O916        C924   1.257       .  A
O917       Cr925   2.023       .  S
O917        C918   1.269       .  A
C918        O919   1.254       .  A
C918       C1006   1.463       .  S
O919       Cr926   1.949       .  S
O920       Cr926   2.001       .  S
O920        C921   1.265       .  A
C921        O922   1.266       .  A
C921       C1054   1.483       .  S
O922       Cr927   1.993       .  S
O923       Cr927   2.036       .  S
O923        C924   1.270       .  A
C924       C1118   1.497       .  S
Cr925       O928   1.763       .  S
Cr926       O928   1.766       .  S
Cr927       O928   1.768       .  S
O929       Cr947   1.913       .  S
O929        C937   1.240       .  A
O930       Cr947   2.028       .  S
O930        C931   1.271       .  A
C931        O932   1.263       .  A
C931       C1038   1.472       .  S
O932       Cr948   1.972       .  S
O933       Cr948   2.034       .  S
O933        C934   1.274       .  A
C934        O935   1.255       .  A
C934       C1070   1.500       .  S
O935       Cr949   1.969       .  S
O936       Cr949   2.079       .  S
O936        C937   1.279       .  A
C937        C974   1.478       .  S
O938       Cr947   2.043       .  S
O938        C946   1.268       .  A
O939       Cr947   1.948       .  S
O939        C940   1.255       .  A
C940        O941   1.270       .  A
C940       C1089   1.471       .  S
O941       Cr948   2.032       .  S
O942        C943   1.258       .  A
C943        C990   1.477       .  S
O944       Cr949   2.042       .  S
O945       Cr949   1.945       .  S
O945        C946   1.246       .  A
C946       C1057   1.474   1_455  S
Cr947       O950   1.749       .  S
Cr948       O950   1.759       .  S
Cr949       O950   1.760       .  S
O951       Cr969   1.967       .  S
O951        C959   1.251       .  A
O952       Cr969   2.037       .  S
O952        C953   1.276       .  A
C953        O954   1.248       .  A
C953        C977   1.479       .  S
O954      Cr2650   1.939   1_455  S
O955       Cr970   2.027       .  S
O955       C2636   1.272       .  A
C956       O2635   1.272   1_455  A
C956        O957   1.260       .  A
C956       C2849   1.485   1_455  S
O957       Cr971   1.953       .  S
O958       Cr971   2.029       .  S
O958        C959   1.263       .  A
C959       C1022   1.479       .  S
O960       Cr969   2.059       .  S
O960        C968   1.280       .  A
O961       Cr969   1.970       .  S
O961       C2642   1.256       .  A
C962       O2641   1.257       .  A
C962        O963   1.273       .  A
C962       C1185   1.500       .  S
O963       Cr970   2.036       .  S
O964       Cr970   1.967       .  S
O964        C965   1.257       .  A
C965        O966   1.266       .  A
C965       C1009   1.474       .  S
O966      Cr2651   2.010       .  S
O967       Cr971   1.938       .  S
O967        C968   1.253       .  A
C968        C993   1.469       .  S
Cr969       O972   1.762       .  S
Cr970      O2634   1.940       .  S
Cr970      O2652   1.764       .  S
Cr971      O2646   2.013   1_455  S
Cr971       O972   1.761       .  S
O972      Cr2650   1.764   1_455  S
C973        C974   1.398       .  A
C973        C978   1.413       .  A
C973        H980   1.083       .  S
C974        C975   1.430       .  A
C975        C976   1.400       .  A
C975        C982   1.524       .  S
C976        C977   1.391       .  A
C976        H981   1.084       .  S
C977        C978   1.428       .  A
C978        C979   1.520       .  S
C979        F983   1.384       .  S
C979        F984   1.383   1_455  S
C979        F985   1.381       .  S
C982        F986   1.378       .  S
C982        F987   1.381       .  S
C982        F988   1.385       .  S
C989        C990   1.407       .  A
C989        C994   1.410       .  A
C989        H996   1.082       .  S
C990        C991   1.412       .  A
C991        C992   1.405       .  A
C991        C998   1.514       .  S
C992        C993   1.404       .  A
C992        H997   1.083       .  S
C993        C994   1.411       .  A
C994        C995   1.516       .  S
C995        F999   1.385       .  S
C995       F1000   1.383       .  S
C995       F1001   1.383       .  S
C998       F1003   1.382       .  S
C998       F1004   1.385       .  S
C1005      C1006   1.400   1_545  A
C1005      H1012   1.081   1_545  S
C1006      C1007   1.415       .  A
C1007      C1014   1.519       .  S
C1008      C1009   1.403       .  A
C1008      H1013   1.085       .  S
C1009      C1010   1.420       .  A
C1010      C1011   1.521       .  S
C1011      F1015   1.385       .  S
C1011      F1016   1.382       .  S
C1011      F1017   1.383       .  S
C1014      F1018   1.384       .  S
C1014      F1019   1.382       .  S
C1014      F1020   1.383       .  S
C1021      C1022   1.402       .  A
C1021      C1026   1.410       .  A
C1021      H1028   1.084       .  S
C1022      C1023   1.413       .  A
C1023      C1024   1.405       .  A
C1023      C1030   1.515       .  S
C1024      C1025   1.406       .  A
C1024      H1029   1.083       .  S
C1025      C1026   1.424       .  A
C1026      C1027   1.519       .  S
C1027      F1031   1.385       .  S
C1027      F1032   1.383       .  S
C1027      F1033   1.384       .  S
C1030      F1034   1.380       .  S
C1030      F1035   1.383       .  S
C1030      F1036   1.385       .  S
C1037      C1038   1.400       .  A
C1037      C1042   1.412       .  A
C1037      H1044   1.083       .  S
C1038      C1039   1.410       .  A
C1039      C1040   1.399       .  A
C1039      C1046   1.516       .  S
C1040      C1041   1.408       .  A
C1040      H1045   1.082       .  S
C1041      C1042   1.427       .  A
C1042      C1043   1.519       .  S
C1043      F1047   1.385       .  S
C1043      F1048   1.380       .  S
C1043      F1049   1.382       .  S
C1046      F1050   1.383       .  S
C1046      F1051   1.381       .  S
C1046      F1052   1.383       .  S
C1053      C1054   1.405       .  A
C1053      C1058   1.402       .  A
C1053      H1060   1.085       .  S
C1054      C1055   1.417       .  A
C1055      C1056   1.410       .  A
C1055      C1062   1.517       .  S
C1056      C2737   1.406       .  A
C1056      H1061   1.082       .  S
C1057      C2736   1.406       .  A
C1057      C2738   1.416       .  A
C1058      C2737   1.415       .  A
C1058      C2739   1.517       .  S
C1059      C2738   1.517   1_455  S
C1059      F1063   1.384   1_455  S
C1059      F1064   1.384       .  S
C1059      F1065   1.383       .  S
C1062      F1066   1.382       .  S
C1062      F1067   1.383       .  S
C1062      F1068   1.385       .  S
C1069      C1074   1.406       .  A
C1069      H1076   1.086       .  S
C1070      C1071   1.427       .  A
C1071      C1072   1.414       .  A
C1071      C1078   1.519       .  S
C1072      C1073   1.404       .  A
C1072      H1077   1.085       .  S
C1074      C1075   1.524       .  S
C1075      F1079   1.385       .  S
C1075      F1080   1.383       .  S
C1075      F1081   1.381       .  S
C1078      F1082   1.383       .  S
C1078      F1083   1.383       .  S
C1078      F1084   1.385       .  S
C1085      C1510   1.405   1_554  A
C1085      H1092   1.082       .  S
C1086      C1087   1.423       .  A
C1087      C1508   1.402   1_554  A
C1087      C1094   1.521       .  S
C1088      C1507   1.403       .  A
C1088      C1089   1.403       .  A
C1088      H1093   1.084       .  S
C1090      C1505   1.405       .  A
C1090      C1091   1.517       .  S
C1091      F1095   1.385       .  S
C1091      F1097   1.382       .  S
C1094      F1098   1.381       .  S
C1094      F1099   1.383       .  S
C1094      F1100   1.385       .  S
C1101      C1102   1.403       .  A
C1101      C1526   1.408   1_554  A
C1101      H1108   1.084       .  S
C1102      C1103   1.423   1_554  A
C1103      C1524   1.403       .  A
C1103      C1110   1.523   1_556  S
C1104      C1523   1.402       .  A
C1104      C1105   1.404       .  A
C1104      H1109   1.082       .  S
C1105      C1106   1.422       .  A
C1106      C1521   1.408       .  A
C1106      C1107   1.517       .  S
C1107      F1531   1.385       .  S
C1107      F1112   1.384       .  S
C1107      F1113   1.382       .  S
C1110      F1114   1.384       .  S
C1110      F1115   1.383       .  S
C1110      F1536   1.385   1_554  S
F1111      C1527   1.385   1_554  S
F1116      C1530   1.385       .  S
C1117      C1118   1.408       .  A
C1117      C1122   1.408       .  A
C1117      H1124   1.083       .  S
C1118      C1119   1.418       .  A
C1119      C1120   1.414       .  A
C1119      C1126   1.518       .  S
C1120      C1121   1.412       .  A
C1120      H1125   1.083       .  S
C1121      C1122   1.421       .  A
C1122      C1123   1.518       .  S
C1123      F1127   1.385       .  S
C1123      F1128   1.383       .  S
C1123      F1129   1.383       .  S
C1126      F1130   1.382       .  S
C1126      F1131   1.383       .  S
C1126      F1132   1.385       .  S
C1133      C1134   1.411       .  A
C1133      C1138   1.409       .  A
C1133      H1140   1.083       .  S
C1134      C1135   1.425       .  A
C1135      C1136   1.403       .  A
C1135      C1142   1.524       .  S
C1136      C1137   1.400       .  A
C1136      H1141   1.084       .  S
C1137      C1138   1.411       .  A
C1138      C1139   1.517       .  S
C1139      F1143   1.385       .  S
C1139      F1144   1.382       .  S
C1139      F1145   1.383       .  S
C1142      F1146   1.383       .  S
C1142      F1147   1.384       .  S
C1142      F1148   1.385       .  S
C1149      C1150   1.413       .  A
C1149      C2834   1.410       .  A
C1149      H1156   1.081       .  S
C1150      C1151   1.427       .  A
C1151      C2832   1.413       .  A
C1151      C1158   1.520       .  S
C1152      C2831   1.413       .  A
C1152      C1153   1.403       .  A
C1152      H1157   1.081       .  S
C1153      C1154   1.411       .  A
C1154      C2829   1.409       .  A
C1154      C1155   1.518       .  S
C1155      F1159   1.384       .  S
C1155      F1160   1.380       .  S
C1155      F1161   1.383       .  S
C1158      F1162   1.383       .  S
C1158      F1163   1.383       .  S
C1158      F1164   1.385       .  S
C1165      C1166   1.409       .  A
C1165      C1170   1.402       .  A
C1165      H1172   1.082       .  S
C1166      C2847   1.419       .  A
C1167      C2846   1.419   1_455  A
C1167      C1168   1.405       .  A
C1167      C1174   1.519       .  S
C1168      C2849   1.408   1_455  A
C1168      H1173   1.081       .  S
C1169      C2636   1.486       .  S
C1169      C2848   1.409       .  A
C1169      C1170   1.418       .  A
C1170      C1171   1.520       .  S
C1171      F1175   1.385       .  S
C1171      F1176   1.383       .  S
C1171      F1177   1.383       .  S
C1174      F1178   1.383       .  S
C1174      F1179   1.383       .  S
C1174      F1180   1.385       .  S
C1181      C2862   1.407   1_455  A
C1181      C1606   1.416   1_554  A
C1181      H1188   1.082       .  S
C1182      C2861   1.408       .  A
C1182      C1183   1.436       .  A
C1183      C1604   1.414   1_554  A
C1183      C1190   1.524       .  S
C1184      C1603   1.414       .  A
C1184      C1185   1.398       .  A
C1184      H1189   1.083       .  S
C1185      C2866   1.423       .  A
C1186      C1601   1.415       .  A
C1186      C2865   1.422       .  A
C1186      C1187   1.519       .  S
C1187      F1191   1.385       .  S
C1187      F1192   1.383       .  S
C1187      F1193   1.382       .  S
C1190      F1194   1.383       .  S
C1190      F1195   1.384       .  S
C1190      F1196   1.385   1_554  S
C1197      C1198   1.410       .  A
C1197      C1202   1.411       .  A
C1197      H1204   1.079       .  S
C1198      C1199   1.414       .  A
C1199      C1200   1.411       .  A
C1199      C1206   1.516       .  S
C1200      C1201   1.409       .  A
C1200      H1205   1.079       .  S
C1201      C1202   1.410       .  A
C1202      C1203   1.516       .  S
C1203      F1207   1.385       .  S
C1203      F1208   1.383       .  S
C1203      F2889   1.383       .  S
C1206      F1210   1.382       .  S
C1206      F1211   1.383       .  S
C1206      F1212   1.384       .  S
F1209      C2883   1.383       .  S
C1213      C1214   1.401       .  A
C1213      C1218   1.403       .  A
C1213      H1220   1.084       .  S
C1214      C1215   1.427       .  A
C1215      C1216   1.415       .  A
C1215      C1222   1.518       .  S
C1216      C1217   1.402   1_565  A
C1216      H1221   1.083       .  S
C1217      C1218   1.418   1_545  A
C1219      F1223   1.384       .  S
C1219      F1224   1.382       .  S
C1219      F1225   1.384       .  S
C1222      F1226   1.380       .  S
C1222      F1227   1.383       .  S
C1222      F1228   1.385       .  S
C1229      C1230   1.402       .  A
C1229      C1234   1.406       .  A
C1229      H1236   1.083       .  S
C1230      C1231   1.420       .  A
C1231      C1232   1.413       .  A
C1232      C1233   1.406       .  A
C1232      H1237   1.083       .  S
C1233      C1234   1.421       .  A
C1234      C1235   1.518       .  S
C1235      F1239   1.385       .  S
C1235      F1240   1.382       .  S
C1235      F1241   1.383       .  S
C1238      F1242   1.382       .  S
C1238      F1243   1.384       .  S
C1238      F1244   1.385       .  S
C1245      C1246   1.397       .  A
C1245      C1250   1.412       .  A
C1245      H1252   1.083       .  S
C1246      C1247   1.414       .  A
C1247      C1248   1.406       .  A
C1247      C1254   1.519       .  S
C1248      C1249   1.408       .  A
C1248      H1253   1.082       .  S
C1249      C1250   1.432       .  A
C1250      C2931   1.520       .  S
C1251      C2930   1.520       .  S
C1251      F1255   1.383       .  S
C1251      F1256   1.384       .  S
C1251      F1257   1.385       .  S
C1254      F1258   1.382       .  S
C1254      F1259   1.383       .  S
C1254      F1260   1.385       .  S
O1261     Cr1279   1.964       .  S
O1261      C1269   1.250       .  A
O1262     Cr1279   2.046       .  S
O1262      C1263   1.277       .  A
C1263      O1264   1.253       .  A
C1263      C1621   1.484       .  S
O1264     Cr1280   1.953       .  S
O1265     Cr1280   2.031       .  S
O1265      C1266   1.272       .  A
C1266      O1267   1.258       .  A
C1266      C1586   1.489       .  S
O1267     Cr1281   1.950       .  S
O1268     Cr1281   2.029       .  S
O1268      C1269   1.265       .  A
C1269      C1653   1.486       .  S
O1270     Cr1279   2.060       .  S
O1270      C1278   1.281       .  A
O1271     Cr1279   1.962       .  S
O1271      C1272   1.251       .  A
C1272      O1273   1.275       .  A
C1272      C1602   1.515       .  S
O1273     Cr1280   2.050       .  S
O1274     Cr2960   1.985   1_455  S
O1274      C1275   1.264       .  A
C1275      O2956   1.264   1_455  A
C1275      C1669   1.503       .  S
O1276     Cr1281   2.020       .  S
O1276      C2955   1.266       .  A
O1277     Cr1281   1.935       .  S
O1277      C1278   1.255       .  A
Cr1279     O1282   1.759       .  S
Cr1280     O2954   1.983       .  S
Cr1280     O1282   1.768       .  S
Cr1281     O1282   1.760       .  S
O1283     Cr1301   1.942       .  S
O1283      C1291   1.248       .  A
O1284     Cr1301   2.021       .  S
O1284      C1285   1.270       .  A
C1285      O1286   1.258       .  A
C1285      C1554   1.488       .  S
O1286     Cr1302   1.964       .  S
O1287     Cr1302   2.041       .  S
O1287      C1288   1.273       .  A
C1288      O1289   1.258       .  A
C1288      C1541   1.500       .  S
O1289     Cr1303   1.968       .  S
O1290     Cr1303   2.071       .  S
O1290      C1291   1.278       .  A
C1291      C1618   1.477       .  S
O1292     Cr1301   2.056       .  S
O1292      C1300   1.271       .  A
O1293     Cr1301   1.953       .  S
O1293      C1294   1.256       .  A
C1294      O1295   1.274       .  A
C1294      C1522   1.483       .  S
O1295     Cr1302   2.037       .  S
O1296     Cr1302   1.961       .  S
O1296      C1297   1.256       .  A
C1297      O1298   1.278       .  A
C1297      C1634   1.489       .  S
O1298     Cr1303   2.040       .  S
O1299     Cr1303   1.951       .  S
O1299      C1300   1.248       .  A
C1300      C1573   1.480       .  S
Cr1301     O1304   1.756       .  S
Cr1302     O1304   1.762       .  S
Cr1303     O1304   1.756       .  S
O1305     Cr1323   2.025       .  S
O1305      C1313   1.271       .  A
O1306     Cr1323   1.957       .  S
O1306      C1307   1.252       .  A
C1307      O1308   1.264       .  A
C1307      C1557   1.475       .  S
O1308     Cr1324   2.016       .  S
O1309     Cr1324   1.954       .  S
O1309      C1310   1.252       .  A
O1311     Cr1325   2.031       .  S
O1312      C1313   1.261       .  A
C1313      C1650   1.487       .  S
O1314     Cr1323   1.962       .  S
O1315     Cr1323   2.039       .  S
O1315      C1316   1.273       .  A
C1316      O1317   1.256       .  A
C1316      C1666   1.478       .  S
O1317     Cr1324   1.957       .  S
O1318      C1319   1.273       .  A
C1319      O1320   1.266       .  A
C1319      C1570   1.502       .  S
O1320     Cr1325   1.986       .  S
O1321     Cr1325   2.038       .  S
O1321      C1322   1.271       .  A
C1322      C1493   1.493       .  S
Cr1323     O1326   1.762       .  S
Cr1324     O1326   1.761       .  S
O1327     Cr1345   2.018       .  S
O1327      C1335   1.270       .  A
O1328     Cr1345   1.962       .  S
O1328      C1329   1.257       .  A
C1329      O1330   1.263       .  A
C1329      C1461   1.496       .  S
O1330     Cr1346   2.017       .  S
O1331     Cr1346   1.963       .  S
O1331      C1332   1.255       .  A
C1332      O1333   1.271       .  A
C1332      C1525   1.488       .  S
O1333     Cr1347   2.023       .  S
O1334     Cr1347   1.972       .  S
O1334      C1335   1.260       .  A
C1335      C1445   1.490       .  S
O1336     Cr1345   1.966       .  S
O1336      C1344   1.258       .  A
O1337     Cr1345   2.024       .  S
O1337      C1338   1.269       .  A
C1338      O1339   1.254       .  A
C1338      C1426   1.465       .  S
O1339     Cr1346   1.952       .  S
O1340     Cr1346   2.004       .  S
O1340      C1341   1.266       .  A
C1341      O1342   1.267       .  A
C1341      C1474   1.484       .  S
O1342     Cr1347   1.993       .  S
O1343     Cr1347   2.034       .  S
O1343      C1344   1.269       .  A
C1344      C1538   1.497       .  S
Cr1345     O1348   1.764       .  S
Cr1346     O1348   1.766       .  S
Cr1347     O1348   1.770       .  S
O1349     Cr1367   1.912       .  S
O1349      C1357   1.240       .  A
O1350     Cr1367   2.028       .  S
O1350      C1351   1.271       .  A
C1351      O1352   1.263       .  A
C1351      C1458   1.473       .  S
O1352     Cr1368   1.973       .  S
O1353     Cr1368   2.031       .  S
O1353      C1354   1.273       .  A
C1354      O1355   1.256       .  A
C1354      C1490   1.499       .  S
O1355     Cr1369   1.971       .  S
O1356     Cr1369   2.078       .  S
O1356      C1357   1.279       .  A
C1357      C1394   1.477       .  S
O1358     Cr1367   2.040       .  S
O1358      C1366   1.268       .  A
O1359     Cr1367   1.947       .  S
O1359      C1360   1.254       .  A
C1360      O1361   1.269       .  A
C1360      C1509   1.469       .  S
O1361     Cr1368   2.031       .  S
O1362      C1363   1.258       .  A
C1363      C1410   1.477       .  S
O1364     Cr1369   2.043       .  S
O1365     Cr1369   1.947       .  S
O1365      C1366   1.247       .  A
C1366      C1477   1.474   1_455  S
Cr1367     O1370   1.749       .  S
Cr1368     O1370   1.760       .  S
Cr1369     O1370   1.760       .  S
O1371     Cr1389   1.969       .  S
O1371      C1379   1.252       .  A
O1372     Cr1389   2.037       .  S
O1372      C1373   1.277       .  A
C1373      O1374   1.248       .  A
C1373      C1397   1.478       .  S
O1374     Cr3070   1.938   1_455  S
O1375     Cr1390   2.026       .  S
O1375      C3056   1.272       .  A
C1376      O3055   1.271   1_455  A
C1376      O1377   1.259       .  A
C1376      C3269   1.486   1_455  S
O1377     Cr1391   1.953       .  S
O1378     Cr1391   2.027       .  S
O1378      C1379   1.264       .  A
C1379      C1442   1.480       .  S
O1380     Cr1389   2.060       .  S
O1380      C1388   1.280       .  A
O1381     Cr1389   1.975       .  S
O1381      C3062   1.257       .  A
C1382      O3061   1.257       .  A
C1382      O1383   1.272       .  A
C1382      C1605   1.499       .  S
O1383     Cr1390   2.033       .  S
O1384     Cr1390   1.968       .  S
O1384      C1385   1.257       .  A
C1385      O1386   1.266       .  A
C1385      C1429   1.477       .  S
O1386     Cr3071   2.011       .  S
O1387     Cr1391   1.937       .  S
O1387      C1388   1.253       .  A
C1388      C1413   1.470       .  S
Cr1389     O1392   1.761       .  S
Cr1390     O3054   1.941       .  S
Cr1390     O3072   1.764       .  S
Cr1391     O3066   2.013   1_455  S
Cr1391     O1392   1.761       .  S
O1392     Cr3070   1.764   1_455  S
C1393      C1394   1.398       .  A
C1393      C1398   1.412       .  A
C1393      H1400   1.083       .  S
C1394      C1395   1.430       .  A
C1395      C1396   1.399       .  A
C1395      C1402   1.525       .  S
C1396      C1397   1.391       .  A
C1396      H1401   1.084       .  S
C1397      C1398   1.427       .  A
C1398      C1399   1.520       .  S
C1399      F1403   1.384       .  S
C1399      F1404   1.382   1_455  S
C1399      F1405   1.380       .  S
C1402      F1406   1.378       .  S
C1402      F1407   1.381       .  S
C1402      F1408   1.385       .  S
C1409      C1410   1.406       .  A
C1409      C1414   1.409       .  A
C1409      H1416   1.081       .  S
C1410      C1411   1.412       .  A
C1411      C1412   1.406       .  A
C1411      C1418   1.515       .  S
C1412      C1413   1.405       .  A
C1412      H1417   1.083       .  S
C1413      C1414   1.411       .  A
C1414      C1415   1.515       .  S
C1415      F1419   1.384       .  S
C1415      F1420   1.383       .  S
C1415      F1421   1.383       .  S
C1418      F1423   1.383       .  S
C1418      F1424   1.385       .  S
C1425      C1426   1.400   1_545  A
C1425      H1432   1.081   1_545  S
C1426      C1427   1.415       .  A
C1427      C1434   1.519       .  S
C1428      C1429   1.404       .  A
C1428      H1433   1.085       .  S
C1429      C1430   1.420       .  A
C1430      C1431   1.521       .  S
C1431      F1435   1.385       .  S
C1431      F1436   1.382       .  S
C1431      F1437   1.383       .  S
C1434      F1438   1.384       .  S
C1434      F1439   1.382       .  S
C1434      F1440   1.383       .  S
C1441      C1442   1.402       .  A
C1441      C1446   1.409       .  A
C1441      H1448   1.084       .  S
C1442      C1443   1.414       .  A
C1443      C1444   1.405       .  A
C1443      C1450   1.514       .  S
C1444      C1445   1.406       .  A
C1444      H1449   1.083       .  S
C1445      C1446   1.423       .  A
C1446      C1447   1.519       .  S
C1447      F1451   1.385       .  S
C1447      F1452   1.383       .  S
C1447      F1453   1.384       .  S
C1450      F1454   1.380       .  S
C1450      F1455   1.383       .  S
C1450      F1456   1.385       .  S
C1457      C1458   1.400       .  A
C1457      C1462   1.412       .  A
C1457      H1464   1.083       .  S
C1458      C1459   1.411       .  A
C1459      C1460   1.400       .  A
C1459      C1466   1.516       .  S
C1460      C1461   1.408       .  A
C1460      H1465   1.082       .  S
C1461      C1462   1.427       .  A
C1462      C1463   1.519       .  S
C1463      F1467   1.385       .  S
C1463      F1468   1.380       .  S
C1463      F1469   1.382       .  S
C1466      F1470   1.382       .  S
C1466      F1471   1.381       .  S
C1466      F1472   1.383       .  S
C1473      C1474   1.404       .  A
C1473      C1478   1.402       .  A
C1473      H1480   1.085       .  S
C1474      C1475   1.418       .  A
C1475      C1476   1.412       .  A
C1475      C1482   1.517       .  S
C1476      C3157   1.406       .  A
C1476      H1481   1.082       .  S
C1477      C3156   1.406       .  A
C1477      C3158   1.415       .  A
C1478      C3157   1.416       .  A
C1478      C3159   1.515       .  S
C1479      C3158   1.517   1_455  S
C1479      F1483   1.384   1_455  S
C1479      F1484   1.383       .  S
C1479      F1485   1.383       .  S
C1482      F1486   1.382       .  S
C1482      F1487   1.383       .  S
C1482      F1488   1.385       .  S
C1489      C1494   1.405       .  A
C1489      H1496   1.082       .  S
C1490      C1491   1.426       .  A
C1491      C1492   1.415       .  A
C1491      C1498   1.519       .  S
C1492      C1493   1.404       .  A
C1492      H1497   1.085       .  S
C1494      C1495   1.524       .  S
C1495      F1499   1.385       .  S
C1495      F1500   1.383       .  S
C1495      F1501   1.381       .  S
C1498      F1502   1.383       .  S
C1498      F1503   1.383       .  S
C1498      F1504   1.385       .  S
C1505      H1512   1.082       .  S
C1506      C1507   1.423       .  A
C1507      C1514   1.521       .  S
C1508      C1509   1.402       .  A
C1508      H1513   1.084       .  S
C1510      C1511   1.517       .  S
C1511      F1515   1.385       .  S
C1511      F1517   1.382       .  S
C1514      F1518   1.381       .  S
C1514      F1519   1.383       .  S
C1514      F1520   1.385       .  S
C1521      C1522   1.403       .  A
C1521      H1528   1.084       .  S
C1522      C1523   1.423       .  A
C1523      C1530   1.523       .  S
C1524      C1525   1.404       .  A
C1524      H1529   1.082       .  S
C1525      C1526   1.422       .  A
C1526      C1527   1.517       .  S
C1527      F1532   1.384       .  S
C1527      F1533   1.381       .  S
C1530      F1534   1.383       .  S
C1530      F1535   1.383       .  S
C1537      C1538   1.407       .  A
C1537      C1542   1.408       .  A
C1537      H1544   1.083       .  S
C1538      C1539   1.418       .  A
C1539      C1540   1.414       .  A
C1539      C1546   1.518       .  S
C1540      C1541   1.411       .  A
C1540      H1545   1.083       .  S
C1541      C1542   1.421       .  A
C1542      C1543   1.518       .  S
C1543      F1547   1.385       .  S
C1543      F1548   1.382       .  S
C1543      F1549   1.383       .  S
C1546      F1550   1.382       .  S
C1546      F1551   1.384       .  S
C1546      F1552   1.385       .  S
C1553      C1554   1.410       .  A
C1553      C1558   1.409       .  A
C1553      H1560   1.083       .  S
C1554      C1555   1.424       .  A
C1555      C1556   1.403       .  A
C1555      C1562   1.524       .  S
C1556      C1557   1.401       .  A
C1556      H1561   1.084       .  S
C1557      C1558   1.412       .  A
C1558      C1559   1.517       .  S
C1559      F1563   1.385       .  S
C1559      F1564   1.382       .  S
C1559      F1565   1.383       .  S
C1562      F1566   1.383       .  S
C1562      F1567   1.384       .  S
C1562      F1568   1.385       .  S
C1569      C1570   1.412       .  A
C1569      C3254   1.408       .  A
C1569      H1576   1.081       .  S
C1570      C1571   1.426       .  A
C1571      C3252   1.412       .  A
C1571      C1578   1.521       .  S
C1572      C3251   1.414       .  A
C1572      C1573   1.403       .  A
C1572      H1577   1.081       .  S
C1573      C1574   1.411       .  A
C1574      C3249   1.409       .  A
C1574      C1575   1.518       .  S
C1575      F1579   1.384       .  S
C1575      F1580   1.380       .  S
C1575      F1581   1.383       .  S
C1578      F1582   1.383       .  S
C1578      F1583   1.383       .  S
C1578      F1584   1.385       .  S
C1585      C1586   1.410       .  A
C1585      C1590   1.403       .  A
C1585      H1592   1.082       .  S
C1586      C3267   1.419       .  A
C1587      C3266   1.418   1_455  A
C1587      C1588   1.404       .  A
C1587      C1594   1.520       .  S
C1588      C3269   1.408   1_455  A
C1588      H1593   1.082       .  S
C1589      C3056   1.485       .  S
C1589      C3268   1.408       .  A
C1589      C1590   1.417       .  A
C1590      C1591   1.520       .  S
C1591      F1595   1.385       .  S
C1591      F1596   1.383       .  S
C1591      F1597   1.383       .  S
C1594      F1598   1.384       .  S
C1594      F1599   1.383       .  S
C1594      F1600   1.385       .  S
C1601      C3282   1.408   1_455  A
C1601      H1608   1.082       .  S
C1602      C3281   1.408       .  A
C1602      C1603   1.436       .  A
C1603      C1610   1.524       .  S
C1604      C1605   1.399       .  A
C1604      H1609   1.083       .  S
C1605      C3286   1.423       .  A
C1606      C3285   1.424       .  A
C1606      C1607   1.519       .  S
C1607      F1611   1.385   1_556  S
C1607      F1612   1.383       .  S
C1607      F1613   1.382       .  S
C1610      F1614   1.383       .  S
C1610      F1615   1.384       .  S
C1610      F1616   1.385       .  S
C1617      C1618   1.410       .  A
C1617      C1622   1.411       .  A
C1617      H1624   1.079       .  S
C1618      C1619   1.414       .  A
C1619      C1620   1.411       .  A
C1619      C1626   1.516       .  S
C1620      C1621   1.409       .  A
C1620      H1625   1.080       .  S
C1621      C1622   1.410       .  A
C1622      C1623   1.516       .  S
C1623      F1627   1.385       .  S
C1623      F1628   1.383       .  S
C1623      F3309   1.383       .  S
C1626      F1630   1.382       .  S
C1626      F1631   1.383       .  S
C1626      F1632   1.383       .  S
F1629      C3303   1.383       .  S
C1633      C1634   1.400       .  A
C1633      C1638   1.402       .  A
C1633      H1640   1.084       .  S
C1634      C1635   1.426       .  A
C1635      C1636   1.415       .  A
C1635      C1642   1.518       .  S
C1636      C1637   1.402       .  A
C1636      H1641   1.083       .  S
C1637      C1638   1.418       .  A
C1639      F1643   1.384       .  S
C1639      F1644   1.382       .  S
C1639      F1645   1.384       .  S
C1642      F1646   1.380       .  S
C1642      F1647   1.383       .  S
C1642      F1648   1.385       .  S
C1649      C1650   1.402       .  A
C1649      C1654   1.405       .  A
C1649      H1656   1.083       .  S
C1650      C1651   1.421       .  A
C1651      C1652   1.412       .  A
C1652      C1653   1.405       .  A
C1652      H1657   1.083       .  S
C1653      C1654   1.420       .  A
C1654      C1655   1.518       .  S
C1655      F1659   1.385       .  S
C1655      F1660   1.382       .  S
C1655      F1661   1.383       .  S
C1658      F1662   1.382       .  S
C1658      F1663   1.383       .  S
C1658      F1664   1.385       .  S
C1665      C1666   1.397       .  A
C1665      C1670   1.413       .  A
C1665      H1672   1.083       .  S
C1666      C1667   1.414       .  A
C1667      C1668   1.406       .  A
C1667      C1674   1.518       .  S
C1668      C1669   1.408       .  A
C1668      H1673   1.082       .  S
C1669      C1670   1.432       .  A
C1670      C3351   1.520       .  S
C1671      C3350   1.520       .  S
C1671      F1675   1.383       .  S
C1671      F1676   1.384       .  S
C1671      F1677   1.385       .  S
C1674      F1678   1.382       .  S
C1674      F1679   1.382       .  S
C1674      F1680   1.385       .  S
O1681     Cr1699   1.962       .  S
O1681      C1689   1.249       .  A
O1682     Cr1699   2.044       .  S
O1682      C1683   1.277       .  A
C1683      O1684   1.253       .  A
C1683      C2041   1.485       .  S
O1684     Cr1700   1.955       .  S
O1685     Cr1700   2.029       .  S
O1685      C1686   1.272       .  A
C1686      O1687   1.259       .  A
C1686      C2006   1.489       .  S
O1687     Cr1701   1.951       .  S
O1688     Cr1701   2.026       .  S
O1688      C1689   1.263       .  A
C1689      C2073   1.483       .  S
O1690     Cr1699   2.058       .  S
O1690      C1698   1.280       .  A
O1691     Cr1699   1.961       .  S
O1691      C1692   1.251       .  A
C1692      O1693   1.275       .  A
C1692      C2022   1.515       .  S
O1693     Cr1700   2.049       .  S
O1694      C1695   1.265       .  A
C1695      C2089   1.504       .  S
O1696     Cr1701   2.015       .  S
O1697     Cr1701   1.936       .  S
O1697      C1698   1.256       .  A
C1698      C2897   1.480       .  S
Cr1699     O1702   1.759       .  S
Cr1700     O1702   1.768       .  S
Cr1701     O1702   1.762       .  S
O1703     Cr1721   1.943       .  S
O1703      C1711   1.248       .  A
O1704     Cr1721   2.022       .  S
O1704      C1705   1.270       .  A
C1705      O1706   1.258       .  A
C1705      C1974   1.490       .  S
O1706     Cr1722   1.964       .  S
O1707     Cr1722   2.041       .  S
O1707      C1708   1.274       .  A
C1708      O1709   1.258       .  A
C1708      C1961   1.501       .  S
O1709     Cr1723   1.967       .  S
O1710     Cr1723   2.071       .  S
O1710      C1711   1.278       .  A
C1711      C2038   1.478       .  S
O1712     Cr1721   2.056       .  S
O1712      C1720   1.271       .  A
O1713     Cr1721   1.954       .  S
O1713      C1714   1.256       .  A
C1714      O1715   1.274       .  A
C1714      C1942   1.484       .  S
O1715     Cr1722   2.037       .  S
O1716     Cr1722   1.963       .  S
O1716      C1717   1.256       .  A
C1717      O1718   1.278       .  A
C1717      C2054   1.489       .  S
O1718     Cr1723   2.040       .  S
O1719     Cr1723   1.951       .  S
O1719      C1720   1.248       .  A
C1720      C1993   1.480       .  S
Cr1721     O1724   1.757       .  S
Cr1722     O1724   1.763       .  S
Cr1723     O1724   1.756       .  S
O1725     Cr1743   2.023       .  S
O1725      C1733   1.271       .  A
O1726     Cr1743   1.958       .  S
O1726      C1727   1.252       .  A
C1727      O1728   1.264       .  A
C1727      C1977   1.475       .  S
O1728     Cr1744   2.017       .  S
O1729     Cr1744   1.953       .  S
O1729      C1730   1.253       .  A
C1730      O2571   1.267   1_545  A
C1730      C2766   1.490   1_545  S
O1731     Cr1745   2.029       .  S
O1731      C2570   1.266       .  A
O1732     Cr2585   1.973   1_545  S
O1732      C1733   1.260       .  A
C1733      C2070   1.484       .  S
O1734     Cr1743   1.963       .  S
O1734      C2582   1.255   1_545  A
O1735     Cr1743   2.040       .  S
O1735      C1736   1.273       .  A
C1736      O1737   1.256       .  A
C1736      C2086   1.479       .  S
O1737     Cr1744   1.957       .  S
O1738     Cr2584   2.025       .  S
O1738      C1739   1.273       .  A
C1739      O1740   1.267       .  A
C1739      C1990   1.503       .  S
O1740     Cr1745   1.988       .  S
O1741     Cr1745   2.037       .  S
O1741      C1742   1.271       .  A
C1742      O2574   1.255       .  A
C1742      C1913   1.492       .  S
Cr1743     O1746   1.763       .  S
Cr1744     O2578   2.024   1_545  S
Cr1744     O1746   1.761       .  S
Cr1745     O2572   1.973       .  S
Cr1745     O2586   1.777       .  S
O1746     Cr2585   1.776   1_545  S
O1747     Cr1765   2.018       .  S
O1747      C1755   1.270       .  A
O1748     Cr1765   1.963       .  S
O1748      C1749   1.257       .  A
C1749      O1750   1.261       .  A
C1749      C1881   1.493       .  S
O1750     Cr1766   2.010       .  S
O1751     Cr1766   1.964       .  S
O1751      C1752   1.256       .  A
C1752      O1753   1.271       .  A
C1752      C1945   1.487       .  S
O1753     Cr1767   2.019       .  S
O1754     Cr1767   1.974       .  S
O1754      C1755   1.261       .  A
C1755      C1865   1.490       .  S
O1756     Cr1765   1.967       .  S
O1756      C1764   1.258       .  A
O1757     Cr1765   2.025       .  S
O1757      C1758   1.269       .  A
C1758      O1759   1.255       .  A
C1758      C1846   1.467       .  S
O1759     Cr1766   1.953       .  S
O1760     Cr1766   1.999       .  S
O1760      C1761   1.264       .  A
C1761      O1762   1.268       .  A
C1761      C1894   1.485       .  S
O1762     Cr1767   1.996       .  S
O1763     Cr1767   2.033       .  S
O1763      C1764   1.269       .  A
C1764      C1958   1.497       .  S
Cr1765     O1768   1.765       .  S
Cr1766     O1768   1.767       .  S
Cr1767     O1768   1.771       .  S
O1769     Cr1787   1.911       .  S
O1769      C1777   1.239       .  A
O1770     Cr1787   2.026       .  S
O1770      C1771   1.271       .  A
C1771      O1772   1.263       .  A
C1771      C1878   1.470       .  S
O1772     Cr1788   1.971       .  S
O1773     Cr1788   2.030       .  S
O1773      C1774   1.273       .  A
C1774      O1775   1.256       .  A
C1774      C1910   1.498       .  S
O1775     Cr1789   1.971       .  S
O1776     Cr1789   2.084       .  S
O1776      C1777   1.280       .  A
C1777      C1814   1.482       .  S
O1778     Cr1787   2.040       .  S
O1778      C1786   1.268       .  A
O1779     Cr1787   1.946       .  S
O1779      C1780   1.254       .  A
C1780      O1781   1.269       .  A
C1780      C1929   1.468       .  S
O1781     Cr1788   2.030       .  S
O1782     Cr2628   1.958   1_545  S
O1782      C1783   1.258       .  A
C1783      O2624   1.278   1_545  A
C1783      C1830   1.477       .  S
O1784     Cr1789   2.047       .  S
O1784      C2623   1.280       .  A
O1785     Cr1789   1.946       .  S
O1785      C1786   1.246       .  A
C1786      C1897   1.474       .  S
Cr1787     O1790   1.749       .  S
Cr1788     O2622   1.959       .  S
Cr1788     O1790   1.760       .  S
Cr1789     O1790   1.759       .  S
O1791     Cr1809   1.969       .  S
O1791      C1799   1.252       .  A
O1792     Cr1809   2.041       .  S
O1792      C1793   1.278       .  A
C1793      O1794   1.248       .  A
C1793      C1817   1.482       .  S
O1795     Cr1810   2.026       .  S
C1796      O1797   1.259       .  A
O1797     Cr1811   1.953       .  S
O1798     Cr1811   2.027       .  S
O1798      C1799   1.263       .  A
C1799      C1862   1.480       .  S
O1800     Cr1809   2.061       .  S
O1800      C1808   1.280       .  A
O1801     Cr1809   1.977       .  S
C1802      O1803   1.273   1_455  A
C1802      C2025   1.499       .  S
O1803     Cr1810   2.037       .  S
O1804     Cr1810   1.968       .  S
O1804      C1805   1.258       .  A
C1805      O1806   1.266       .  A
C1805      C1849   1.477       .  S
O1807     Cr1811   1.938       .  S
O1807      C1808   1.253       .  A
C1808      C1833   1.471       .  S
Cr1809     O1812   1.761       .  S
Cr1811     O1812   1.762       .  S
C1813      C1814   1.399       .  A
C1813      C1818   1.414       .  A
C1813      H1820   1.083       .  S
C1814      C1815   1.431       .  A
C1815      C1816   1.400       .  A
C1815      C1822   1.524       .  S
C1816      C1817   1.390       .  A
C1816      H1821   1.084       .  S
C1817      C1818   1.429       .  A
C1818      C1819   1.520       .  S
C1819      F1823   1.384       .  S
C1819      F1824   1.383       .  S
C1819      F1825   1.380       .  S
C1822      F1826   1.378       .  S
C1822      F1827   1.381       .  S
C1822      F1828   1.385       .  S
C1829      C1830   1.406       .  A
C1829      C1834   1.409       .  A
C1829      H1836   1.082       .  S
C1830      C1831   1.412       .  A
C1831      C1832   1.407       .  A
C1831      C1838   1.515       .  S
C1832      C1833   1.406       .  A
C1832      H1837   1.083       .  S
C1833      C1834   1.411       .  A
C1834      C1835   1.515       .  S
C1835      F1839   1.385       .  S
C1835      F1840   1.383       .  S
C1835      F1841   1.383       .  S
C1838      F2682   1.383       .  S
C1838      F1843   1.383       .  S
C1838      F1844   1.385       .  S
F1842      C2678   1.383       .  S
C1845      C1846   1.399       .  A
C1845      C2690   1.406       .  A
C1845      H1852   1.081       .  S
C1846      C1847   1.412       .  A
C1847      C2688   1.403       .  A
C1847      C1854   1.518       .  S
C1848      C2687   1.403   1_545  A
C1848      C1849   1.405       .  A
C1848      H1853   1.084       .  S
C1849      C1850   1.421       .  A
C1850      C2685   1.405       .  A
C1850      C1851   1.521       .  S
C1851      F1855   1.385       .  S
C1851      F1856   1.382       .  S
C1851      F1857   1.383       .  S
C1854      F1858   1.384       .  S
C1854      F1859   1.383       .  S
C1854      F1860   1.382       .  S
C1861      C1862   1.403       .  A
C1861      C1866   1.410       .  A
C1861      H1868   1.084       .  S
C1862      C1863   1.414       .  A
C1863      C1864   1.405       .  A
C1863      C1870   1.515       .  S
C1864      C1865   1.406       .  A
C1864      H1869   1.083       .  S
C1865      C1866   1.423       .  A
C1866      C1867   1.518       .  S
C1867      F1871   1.385       .  S
C1867      F1872   1.383       .  S
C1867      F1873   1.384       .  S
C1870      F1874   1.380       .  S
C1870      F1875   1.383       .  S
C1870      F1876   1.385       .  S
C1877      C1878   1.399       .  A
C1877      C1882   1.410       .  A
C1877      H1884   1.083       .  S
C1878      C1879   1.411       .  A
C1879      C1880   1.399       .  A
C1879      C1886   1.516       .  S
C1880      C1881   1.407       .  A
C1880      H1885   1.082       .  S
C1881      C1882   1.428       .  A
C1882      C1883   1.519       .  S
C1883      F1887   1.385       .  S
C1883      F1888   1.380       .  S
C1883      F1889   1.382       .  S
C1886      F1890   1.382       .  S
C1886      F1891   1.381       .  S
C1886      F1892   1.383       .  S
C1893      C1894   1.406       .  A
C1893      C1898   1.402       .  A
C1893      H1900   1.085       .  S
C1894      C1895   1.417       .  A
C1895      C1896   1.411       .  A
C1895      C1902   1.517       .  S
C1896      H1901   1.082       .  S
C1899      F1903   1.384       .  S
C1899      F1904   1.383       .  S
C1899      F1905   1.383       .  S
C1902      F1906   1.382       .  S
C1902      F1907   1.383       .  S
C1902      F1908   1.385       .  S
C1909      C2750   1.403   1_545  A
C1909      C1914   1.406       .  A
C1909      H1916   1.081       .  S
C1910      C2749   1.403       .  A
C1910      C1911   1.425       .  A
C1911      C1912   1.414       .  A
C1911      C1918   1.518       .  S
C1912      C1913   1.404       .  A
C1912      H1917   1.084       .  S
C1913      C2754   1.425       .  A
C1914      C2753   1.425   1_545  A
C1914      C1915   1.524       .  S
C1915      F1919   1.385       .  S
C1915      F1920   1.383       .  S
C1915      F1921   1.381       .  S
C1918      F1922   1.383       .  S
C1918      F1923   1.383       .  S
C1918      F1924   1.385       .  S
C1925      C2766   1.415   1_545  A
C1925      C2350   1.405   1_554  A
C1925      H1932   1.082       .  S
C1926      C2570   1.491       .  S
C1926      C2765   1.415       .  A
C1926      C1927   1.423       .  A
C1927      C2348   1.403   1_554  A
C1927      C1934   1.521       .  S
C1928      C2347   1.403       .  A
C1928      C1929   1.403       .  A
C1928      H1933   1.084       .  S
C1929      C2770   1.406       .  A
C1930      C2345   1.404       .  A
C1930      C2769   1.406   1_545  A
C1930      C1931   1.517       .  S
C1931      F1935   1.385       .  S
C1931      F2776   1.384       .  S
C1931      F1937   1.382       .  S
C1934      F1938   1.381       .  S
C1934      F1939   1.383       .  S
C1934      F1940   1.385       .  S
F1936      C2771   1.384       .  S
C1941      C1942   1.403       .  A
C1941      C2366   1.409   1_554  A
C1941      H1948   1.084       .  S
C1942      C1943   1.423   1_554  A
C1943      C2364   1.402       .  A
C1943      C1950   1.523       .  S
C1944      C2363   1.402       .  A
C1944      C1945   1.403       .  A
C1944      H1949   1.082       .  S
C1945      C1946   1.420       .  A
C1946      C2361   1.408       .  A
C1946      C1947   1.517       .  S
C1947      F2371   1.385       .  S
C1947      F1952   1.384       .  S
C1947      F1953   1.382       .  S
C1950      F1954   1.384   1_556  S
C1950      F1955   1.383   1_556  S
C1950      F2376   1.385       .  S
F1951      C2367   1.385       .  S
F1956      C2370   1.385       .  S
C1957      C1958   1.407       .  A
C1957      C1962   1.409       .  A
C1957      H1964   1.083       .  S
C1958      C1959   1.418       .  A
C1959      C1960   1.414       .  A
C1959      C1966   1.518       .  S
C1960      C1961   1.411       .  A
C1960      H1965   1.083       .  S
C1961      C1962   1.421       .  A
C1962      C1963   1.518       .  S
C1963      F1967   1.385       .  S
C1963      F1968   1.383       .  S
C1963      F1969   1.382       .  S
C1966      F1970   1.382       .  S
C1966      F1971   1.384       .  S
C1966      F1972   1.385       .  S
C1973      C1974   1.411       .  A
C1973      C1978   1.410       .  A
C1973      H1980   1.083       .  S
C1974      C1975   1.425       .  A
C1975      C1976   1.403       .  A
C1975      C1982   1.524       .  S
C1976      C1977   1.400       .  A
C1976      H1981   1.084       .  S
C1977      C1978   1.412       .  A
C1978      C1979   1.517       .  S
C1979      F1983   1.385       .  S
C1979      F1984   1.382       .  S
C1979      F1985   1.383       .  S
C1982      F1986   1.383       .  S
C1982      F1987   1.384       .  S
C1982      F1988   1.385       .  S
C1989      C1990   1.413       .  A
C1989      H1996   1.081       .  S
C1990      C1991   1.427       .  A
C1991      C1998   1.520       .  S
C1992      C1993   1.403   1_455  A
C1992      H1997   1.082   1_455  S
C1993      C1994   1.412   1_655  A
C1994      C1995   1.518   1_455  S
C1995      F1999   1.384   1_655  S
C1995      F2000   1.380       .  S
C1995      F2001   1.383       .  S
C1998      F2002   1.383       .  S
C1998      F2003   1.383       .  S
C1998      F2004   1.385       .  S
C2005      C2006   1.409       .  A
C2005      C2010   1.403       .  A
C2005      H2012   1.082       .  S
C2007      C2008   1.404       .  A
C2007      C2014   1.519       .  S
C2008      H2013   1.081       .  S
C2009      C2010   1.418       .  A
C2010      C2011   1.519       .  S
C2011      F2015   1.385       .  S
C2011      F2016   1.383       .  S
C2011      F2017   1.383       .  S
C2014      F2018   1.383       .  S
C2014      F2019   1.383       .  S
C2014      F2020   1.385       .  S
C2021      C2446   1.416   1_554  A
C2021      H2028   1.082       .  S
C2022      C2023   1.437       .  A
C2023      C2444   1.413   1_554  A
C2023      C2030   1.524       .  S
C2024      C2443   1.414       .  A
C2024      C2025   1.398   1_655  A
C2024      H2029   1.083       .  S
C2026      C2441   1.416       .  A
C2026      C2027   1.519       .  S
C2027      F2031   1.385       .  S
C2027      F2032   1.383       .  S
C2027      F2033   1.382       .  S
C2030      F2034   1.383       .  S
C2030      F2035   1.384       .  S
C2030      F2036   1.385   1_554  S
C2037      C2038   1.410       .  A
C2037      C2042   1.411       .  A
C2037      H2044   1.080       .  S
C2038      C2039   1.414       .  A
C2039      C2040   1.411       .  A
C2039      C2046   1.516       .  S
C2040      C2041   1.409       .  A
C2040      H2045   1.081       .  S
C2041      C2042   1.411       .  A
C2042      C2043   1.516       .  S
C2043      F2047   1.384       .  S
C2043      F2048   1.383       .  S
C2046      F2050   1.382       .  S
C2046      F2051   1.383       .  S
C2046      F2052   1.384       .  S
C2053      C2054   1.401       .  A
C2053      C2058   1.402       .  A
C2053      H2060   1.084       .  S
C2054      C2055   1.426       .  A
C2055      C2056   1.415       .  A
C2055      C2062   1.519       .  S
C2056      C2057   1.402       .  A
C2056      H2061   1.083       .  S
C2057      C2538   1.480       .  S
C2057      C2058   1.418       .  A
C2058      C2899   1.519       .  S
C2059      C2898   1.519   1_545  S
C2059      F2063   1.383   1_545  S
C2059      F2064   1.382       .  S
C2059      F2065   1.384       .  S
C2062      F2066   1.380       .  S
C2062      F2067   1.382       .  S
C2062      F2068   1.385       .  S
C2069      C2070   1.402       .  A
C2069      C2074   1.404       .  A
C2069      H2076   1.083       .  S
C2070      C2071   1.420       .  A
C2071      C2072   1.411       .  A
C2071      C2918   1.518   1_545  S
C2072      C2073   1.405       .  A
C2072      H2077   1.083       .  S
C2073      C2074   1.419       .  A
C2074      C2075   1.518       .  S
C2075      F2079   1.384       .  S
C2075      F2080   1.382       .  S
C2075      F2081   1.384       .  S
C2078      C2911   1.518       .  S
C2078      F2082   1.382       .  S
C2078      F2083   1.384       .  S
C2078      F2084   1.385       .  S
C2085      C2086   1.397       .  A
C2085      C2090   1.413       .  A
C2085      H2092   1.083       .  S
C2086      C2087   1.414       .  A
C2087      C2088   1.406       .  A
C2087      C2094   1.519       .  S
C2088      C2089   1.409       .  A
C2088      H2093   1.082       .  S
C2089      C2090   1.432       .  A
C2091      F2095   1.383   1_455  S
C2091      F2096   1.384       .  S
C2091      F2097   1.385       .  S
C2094      F2098   1.382       .  S
C2094      F2099   1.383       .  S
C2094      F2100   1.385       .  S
O2101     Cr2119   1.964       .  S
O2101      C2109   1.250       .  A
O2102     Cr2119   2.044       .  S
O2102      C2103   1.277       .  A
C2103      O2104   1.253       .  A
C2103      C2461   1.485       .  S
O2104     Cr2120   1.954       .  S
O2105     Cr2120   2.030       .  S
O2105      C2106   1.272       .  A
C2106      O2107   1.259       .  A
C2106      C2426   1.488       .  S
O2107     Cr2121   1.949       .  S
O2108     Cr2121   2.025       .  S
O2108      C2109   1.263       .  A
C2109      C2493   1.482       .  S
O2110     Cr2119   2.060       .  S
O2110      C2118   1.281       .  A
O2111     Cr2119   1.962       .  S
O2111      C2112   1.252       .  A
C2112      O2113   1.275       .  A
C2112      C2442   1.515       .  S
O2113     Cr2120   2.047       .  S
O2114      C2115   1.265       .  A
C2115      C2509   1.502       .  S
O2116     Cr2121   2.016       .  S
O2117     Cr2121   1.936       .  S
O2117      C2118   1.255       .  A
C2118      C3317   1.480   1_545  S
Cr2119     O2122   1.759       .  S
Cr2120     O2122   1.768       .  S
Cr2121     O2122   1.760       .  S
O2123     Cr2141   1.942       .  S
O2123      C2131   1.247       .  A
O2124     Cr2141   2.024       .  S
O2124      C2125   1.271       .  A
C2125      O2126   1.258       .  A
C2125      C2394   1.490       .  S
O2126     Cr2142   1.963       .  S
O2127     Cr2142   2.042       .  S
O2127      C2128   1.274       .  A
C2128      O2129   1.258       .  A
C2128      C2381   1.501       .  S
O2129     Cr2143   1.966       .  S
O2130     Cr2143   2.072       .  S
O2130      C2131   1.279       .  A
C2131      C2458   1.478       .  S
O2132     Cr2141   2.056       .  S
O2132      C2140   1.271       .  A
O2133     Cr2141   1.952       .  S
O2133      C2134   1.255       .  A
C2134      O2135   1.274       .  A
C2134      C2362   1.484       .  S
O2135     Cr2142   2.037       .  S
O2136     Cr2142   1.961       .  S
O2136      C2137   1.256       .  A
C2137      O2138   1.278       .  A
C2137      C2474   1.488       .  S
O2138     Cr2143   2.040       .  S
O2139     Cr2143   1.952       .  S
O2139      C2140   1.248       .  A
C2140      C2413   1.480       .  S
Cr2141     O2144   1.755       .  S
Cr2142     O2144   1.762       .  S
Cr2143     O2144   1.755       .  S
O2145     Cr2163   2.023       .  S
O2145      C2153   1.271       .  A
O2146     Cr2163   1.957       .  S
O2146      C2147   1.252       .  A
C2147      O2148   1.264       .  A
C2147      C2397   1.475       .  S
O2148     Cr2164   2.018       .  S
O2149     Cr2164   1.952       .  S
O2149      C2150   1.252       .  A
C2150      O2991   1.267   1_545  A
C2150      C3186   1.490   1_545  S
O2151     Cr2165   2.031       .  S
O2151      C2990   1.267       .  A
O2152     Cr3005   1.972   1_545  S
O2152      C2153   1.260       .  A
C2153      C2490   1.486       .  S
O2154     Cr2163   1.962       .  S
O2154      C3002   1.255   1_545  A
O2155     Cr2163   2.040       .  S
O2155      C2156   1.273       .  A
C2156      O2157   1.256       .  A
C2156      C2506   1.477       .  S
O2157     Cr2164   1.955       .  S
O2158     Cr3004   2.025       .  S
O2158      C2159   1.273       .  A
C2159      O2160   1.266       .  A
C2159      C2410   1.503       .  S
O2160     Cr2165   1.988       .  S
O2161     Cr2165   2.038       .  S
O2161      C2162   1.272       .  A
C2162      O2994   1.255       .  A
C2162      C2333   1.493       .  S
Cr2163     O2166   1.763       .  S
Cr2164     O2998   2.025   1_545  S
Cr2164     O2166   1.760       .  S
Cr2165     O2992   1.973       .  S
Cr2165     O3006   1.776       .  S
O2166     Cr3005   1.775   1_545  S
O2167     Cr2185   2.017       .  S
O2167      C2175   1.270       .  A
O2168     Cr2185   1.963       .  S
O2168      C2169   1.257       .  A
C2169      O2170   1.261       .  A
C2169      C2301   1.493       .  S
O2170     Cr2186   2.009       .  S
O2171     Cr2186   1.964       .  S
O2171      C2172   1.256       .  A
C2172      O2173   1.272       .  A
C2172      C2365   1.488       .  S
O2173     Cr2187   2.022       .  S
O2174     Cr2187   1.972       .  S
O2174      C2175   1.260       .  A
C2175      C2285   1.488       .  S
O2176     Cr2185   1.965       .  S
O2176      C2184   1.257       .  A
O2177     Cr2185   2.022       .  S
O2177      C2178   1.269       .  A
C2178      O2179   1.255       .  A
C2178      C2266   1.466       .  S
O2179     Cr2186   1.951       .  S
O2180     Cr2186   2.000       .  S
O2180      C2181   1.265       .  A
C2181      O2182   1.267       .  A
C2181      C2314   1.483       .  S
O2182     Cr2187   1.994       .  S
O2183     Cr2187   2.035       .  S
O2183      C2184   1.269       .  A
C2184      C2378   1.498       .  S
Cr2185     O2188   1.765       .  S
Cr2186     O2188   1.766       .  S
Cr2187     O2188   1.770       .  S
O2189     Cr2207   1.911       .  S
O2189      C2197   1.239       .  A
O2190     Cr2207   2.025       .  S
O2190      C2191   1.270       .  A
C2191      O2192   1.262       .  A
C2191      C2298   1.468       .  S
O2192     Cr2208   1.970       .  S
O2193     Cr2208   2.033       .  S
O2193      C2194   1.273       .  A
C2194      O2195   1.256       .  A
C2194      C2330   1.500       .  S
O2195     Cr2209   1.970       .  S
O2196     Cr2209   2.084       .  S
O2196      C2197   1.280       .  A
C2197      C2234   1.480       .  S
O2198     Cr2207   2.042       .  S
O2198      C2206   1.268       .  A
O2199     Cr2207   1.947       .  S
O2199      C2200   1.255       .  A
C2200      O2201   1.270       .  A
C2200      C2349   1.470       .  S
O2201     Cr2208   2.032       .  S
O2202     Cr3048   1.958   1_545  S
O2202      C2203   1.258       .  A
C2203      O3044   1.279   1_545  A
C2203      C2250   1.478       .  S
O2204     Cr2209   2.045       .  S
O2204      C3043   1.279       .  A
O2205     Cr2209   1.945       .  S
O2205      C2206   1.246       .  A
C2206      C2317   1.474       .  S
Cr2207     O2210   1.749       .  S
Cr2208     O3042   1.957       .  S
Cr2208     O2210   1.759       .  S
Cr2209     O2210   1.759       .  S
O2211     Cr2229   1.966       .  S
O2211      C2219   1.252       .  A
O2212     Cr2229   2.041       .  S
O2212      C2213   1.278       .  A
C2213      O2214   1.248       .  A
C2213      C2237   1.482       .  S
O2215     Cr2230   2.026       .  S
C2216      O2217   1.259       .  A
O2217     Cr2231   1.953       .  S
O2218     Cr2231   2.027       .  S
O2218      C2219   1.264       .  A
C2219      C2282   1.479       .  S
O2220     Cr2229   2.061       .  S
O2220      C2228   1.280       .  A
O2221     Cr2229   1.973       .  S
C2222      O2223   1.273   1_455  A
C2222      C2445   1.498       .  S
O2223     Cr2230   2.037       .  S
O2224     Cr2230   1.969       .  S
O2224      C2225   1.258       .  A
C2225      O2226   1.266       .  A
C2225      C2269   1.479       .  S
O2227     Cr2231   1.939       .  S
O2227      C2228   1.253       .  A
C2228      C2253   1.471       .  S
Cr2229     O2232   1.761       .  S
Cr2231     O2232   1.762       .  S
C2233      C2234   1.399       .  A
C2233      C2238   1.414       .  A
C2233      H2240   1.083       .  S
C2234      C2235   1.431       .  A
C2235      C2236   1.401       .  A
C2235      C2242   1.525       .  S
C2236      C2237   1.391       .  A
C2236      H2241   1.084       .  S
C2237      C2238   1.428       .  A
C2238      C2239   1.520       .  S
C2239      F2243   1.385       .  S
C2239      F2244   1.382       .  S
C2239      F2245   1.380       .  S
C2242      F2246   1.378       .  S
C2242      F2247   1.381       .  S
C2242      F2248   1.385       .  S
C2249      C2250   1.405       .  A
C2249      C2254   1.409       .  A
C2249      H2256   1.081       .  S
C2250      C2251   1.412       .  A
C2251      C2252   1.408       .  A
C2251      C2258   1.515       .  S
C2252      C2253   1.406       .  A
C2252      H2257   1.083       .  S
C2253      C2254   1.412       .  A
C2254      C2255   1.516       .  S
C2255      F2259   1.384       .  S
C2255      F2260   1.383       .  S
C2255      F2261   1.383       .  S
C2258      F3102   1.383       .  S
C2258      F2263   1.383       .  S
C2258      F2264   1.385       .  S
F2262      C3098   1.383       .  S
C2265      C2266   1.398       .  A
C2265      C3110   1.405       .  A
C2265      H2272   1.081       .  S
C2266      C2267   1.413       .  A
C2267      C3108   1.403       .  A
C2267      C2274   1.520       .  S
C2268      C3107   1.404   1_545  A
C2268      C2269   1.406       .  A
C2268      H2273   1.084       .  S
C2269      C2270   1.422       .  A
C2270      C3105   1.406   1_545  A
C2270      C2271   1.521       .  S
C2271      F2275   1.385       .  S
C2271      F2276   1.382       .  S
C2271      F2277   1.383       .  S
C2274      F2278   1.385       .  S
C2274      F2279   1.383       .  S
C2274      F2280   1.381       .  S
C2281      C2282   1.402       .  A
C2281      C2286   1.410       .  A
C2281      H2288   1.083       .  S
C2282      C2283   1.414       .  A
C2283      C2284   1.404       .  A
C2283      C2290   1.514       .  S
C2284      C2285   1.405       .  A
C2284      H2289   1.083       .  S
C2285      C2286   1.423       .  A
C2286      C2287   1.518       .  S
C2287      F2291   1.385       .  S
C2287      F2292   1.383       .  S
C2287      F2293   1.384       .  S
C2290      F2294   1.380       .  S
C2290      F2295   1.383       .  S
C2290      F2296   1.385       .  S
C2297      C2298   1.398       .  A
C2297      C2302   1.410       .  A
C2297      H2304   1.083       .  S
C2298      C2299   1.410       .  A
C2299      C2300   1.399       .  A
C2299      C2306   1.516       .  S
C2300      C2301   1.408       .  A
C2300      H2305   1.082       .  S
C2301      C2302   1.427       .  A
C2302      C2303   1.519       .  S
C2303      F2307   1.385       .  S
C2303      F2308   1.380       .  S
C2303      F2309   1.382       .  S
C2306      F2310   1.382       .  S
C2306      F2311   1.381       .  S
C2306      F2312   1.382       .  S
C2313      C2314   1.405       .  A
C2313      C2318   1.402       .  A
C2313      H2320   1.085       .  S
C2314      C2315   1.417       .  A
C2315      C2316   1.410       .  A
C2315      C2322   1.517       .  S
C2316      H2321   1.082       .  S
C2319      F2323   1.384       .  S
C2319      F2324   1.383       .  S
C2319      F2325   1.383       .  S
C2322      F2326   1.382       .  S
C2322      F2327   1.383       .  S
C2322      F2328   1.385       .  S
C2329      C3170   1.404   1_545  A
C2329      C2334   1.406       .  A
C2329      H2336   1.082       .  S
C2330      C3169   1.404       .  A
C2330      C2331   1.426       .  A
C2331      C2332   1.414       .  A
C2331      C2338   1.519       .  S
C2332      C2333   1.403       .  A
C2332      H2337   1.084       .  S
C2333      C3174   1.425       .  A
C2334      C3173   1.425   1_545  A
C2334      C2335   1.524       .  S
C2335      F2339   1.385       .  S
C2335      F2340   1.383       .  S
C2335      F2341   1.381       .  S
C2338      F2342   1.383       .  S
C2338      F2343   1.383       .  S
C2338      F2344   1.385       .  S
C2345      C3186   1.415   1_545  A
C2345      H2352   1.082       .  S
C2346      C2990   1.490       .  S
C2346      C3185   1.415       .  A
C2346      C2347   1.423       .  A
C2347      C2354   1.521       .  S
C2348      C2349   1.403       .  A
C2348      H2353   1.084       .  S
C2349      C3190   1.406       .  A
C2350      C3189   1.407   1_545  A
C2350      C2351   1.517       .  S
C2351      F2355   1.384       .  S
C2351      F3196   1.384       .  S
C2351      F2357   1.382       .  S
C2354      F2358   1.381       .  S
C2354      F2359   1.383       .  S
C2354      F2360   1.385       .  S
F2356      C3191   1.384       .  S
C2361      C2362   1.404       .  A
C2361      H2368   1.084       .  S
C2362      C2363   1.424       .  A
C2363      C2370   1.524       .  S
C2364      C2365   1.404       .  A
C2364      H2369   1.082       .  S
C2365      C2366   1.421       .  A
C2366      C2367   1.517       .  S
C2367      F2372   1.384       .  S
C2367      F2373   1.382       .  S
C2370      F2374   1.384       .  S
C2370      F2375   1.383       .  S
C2377      C2378   1.408       .  A
C2377      C2382   1.409       .  A
C2377      H2384   1.083       .  S
C2378      C2379   1.418       .  A
C2379      C2380   1.414       .  A
C2379      C2386   1.518       .  S
C2380      C2381   1.411       .  A
C2380      H2385   1.083       .  S
C2381      C2382   1.421       .  A
C2382      C2383   1.518       .  S
C2383      F2387   1.385       .  S
C2383      F2388   1.383       .  S
C2383      F2389   1.383       .  S
C2386      F2390   1.382       .  S
C2386      F2391   1.384       .  S
C2386      F2392   1.385       .  S
C2393      C2394   1.411       .  A
C2393      C2398   1.410       .  A
C2393      H2400   1.083       .  S
C2394      C2395   1.425       .  A
C2395      C2396   1.403       .  A
C2395      C2402   1.524       .  S
C2396      C2397   1.400       .  A
C2396      H2401   1.084       .  S
C2397      C2398   1.411       .  A
C2398      C2399   1.517       .  S
C2399      F2403   1.385       .  S
C2399      F2404   1.382       .  S
C2399      F2405   1.383       .  S
C2402      F2406   1.383       .  S
C2402      F2407   1.384       .  S
C2402      F2408   1.385       .  S
C2409      C2410   1.412       .  A
C2409      H2416   1.081       .  S
C2410      C2411   1.426       .  A
C2411      C2418   1.520       .  S
C2412      C2413   1.403   1_455  A
C2412      H2417   1.082   1_455  S
C2413      C2414   1.412   1_655  A
C2414      C2415   1.518   1_455  S
C2415      F2419   1.384   1_655  S
C2415      F2420   1.380       .  S
C2415      F2421   1.383       .  S
C2418      F2422   1.383       .  S
C2418      F2423   1.383       .  S
C2418      F2424   1.385       .  S
C2425      C2426   1.409       .  A
C2425      C2430   1.402       .  A
C2425      H2432   1.082       .  S
C2427      C2428   1.405       .  A
C2427      C2434   1.520       .  S
C2428      H2433   1.081       .  S
C2429      C2430   1.418       .  A
C2430      C2431   1.520       .  S
C2431      F2435   1.385       .  S
C2431      F2436   1.383       .  S
C2431      F2437   1.383       .  S
C2434      F2438   1.383       .  S
C2434      F2439   1.383       .  S
C2434      F2440   1.385       .  S
C2441      H2448   1.082       .  S
C2442      C2443   1.437       .  A
C2443      C2450   1.524       .  S
C2444      C2445   1.398   1_655  A
C2444      H2449   1.083       .  S
C2446      C2447   1.519       .  S
C2447      F2451   1.385   1_556  S
C2447      F2452   1.383       .  S
C2447      F2453   1.383       .  S
C2450      F2454   1.383       .  S
C2450      F2455   1.384       .  S
C2450      F2456   1.385       .  S
C2457      C2458   1.410       .  A
C2457      C2462   1.411       .  A
C2457      H2464   1.080       .  S
C2458      C2459   1.414       .  A
C2459      C2460   1.411       .  A
C2459      C2466   1.516       .  S
C2460      C2461   1.409       .  A
C2460      H2465   1.081       .  S
C2461      C2462   1.410       .  A
C2462      C2463   1.516       .  S
C2463      F2467   1.384       .  S
C2463      F2468   1.383       .  S
C2466      F2470   1.382       .  S
C2466      F2471   1.383       .  S
C2466      F2472   1.384       .  S
C2473      C2474   1.400       .  A
C2473      C2478   1.402       .  A
C2473      H2480   1.083       .  S
C2474      C2475   1.426       .  A
C2475      C2476   1.414       .  A
C2475      C2482   1.518       .  S
C2476      C2477   1.402       .  A
C2476      H2481   1.083       .  S
C2477      C2958   1.478       .  S
C2477      C2478   1.418       .  A
C2478      C3319   1.519       .  S
C2479      C3318   1.519   1_545  S
C2479      F2483   1.384   1_545  S
C2479      F2484   1.382       .  S
C2479      F2485   1.384       .  S
C2482      F2486   1.380       .  S
C2482      F2487   1.383       .  S
C2482      F2488   1.385       .  S
C2489      C2490   1.403       .  A
C2489      C2494   1.405       .  A
C2489      H2496   1.083       .  S
C2490      C2491   1.421       .  A
C2491      C2492   1.411       .  A
C2491      C3338   1.519   1_545  S
C2492      C2493   1.404       .  A
C2492      H2497   1.083       .  S
C2493      C2494   1.418       .  A
C2494      C2495   1.518       .  S
C2495      F2499   1.384       .  S
C2495      F2500   1.382       .  S
C2495      F2501   1.384       .  S
C2498      C3331   1.518       .  S
C2498      F2502   1.382       .  S
C2498      F2503   1.383       .  S
C2498      F2504   1.385       .  S
C2505      C2506   1.397       .  A
C2505      C2510   1.413       .  A
C2505      H2512   1.083       .  S
C2506      C2507   1.414       .  A
C2507      C2508   1.405       .  A
C2507      C2514   1.518       .  S
C2508      C2509   1.408       .  A
C2508      H2513   1.082       .  S
C2509      C2510   1.432       .  A
C2511      F2515   1.383   1_455  S
C2511      F2516   1.384       .  S
C2511      F2517   1.385       .  S
C2514      F2518   1.382       .  S
C2514      F2519   1.382       .  S
C2514      F2520   1.385       .  S
O2521     Cr2539   1.962       .  S
O2521      C2529   1.249       .  A
O2522     Cr2539   2.044       .  S
O2522      C2523   1.277       .  A
C2523      O2524   1.252       .  A
C2523      C2881   1.483       .  S
O2524     Cr2540   1.952       .  S
O2525     Cr2540   2.031       .  S
O2525      C2526   1.272       .  A
C2526      O2527   1.258       .  A
C2526      C2846   1.489       .  S
O2527     Cr2541   1.950       .  S
O2528     Cr2541   2.028       .  S
O2528      C2529   1.265       .  A
C2529      C2913   1.485       .  S
O2530     Cr2539   2.058       .  S
O2530      C2538   1.280       .  A
O2531     Cr2539   1.962       .  S
O2531      C2532   1.251       .  A
C2532      O2533   1.275       .  A
C2532      C2862   1.513       .  S
O2533     Cr2540   2.051       .  S
O2534      C2535   1.264       .  A
C2535      C2929   1.503       .  S
O2536     Cr2541   2.019       .  S
O2537     Cr2541   1.936       .  S
O2537      C2538   1.255       .  A
Cr2539     O2542   1.758       .  S
Cr2540     O2542   1.768       .  S
Cr2541     O2542   1.759       .  S
O2543     Cr2561   1.941       .  S
O2543      C2551   1.247       .  A
O2544     Cr2561   2.024       .  S
O2544      C2545   1.270       .  A
C2545      O2546   1.258       .  A
C2545      C2814   1.487       .  S
O2546     Cr2562   1.964       .  S
O2547     Cr2562   2.041       .  S
O2547      C2548   1.274       .  A
C2548      O2549   1.258       .  A
C2548      C2801   1.502       .  S
O2549     Cr2563   1.968       .  S
O2550     Cr2563   2.069       .  S
O2550      C2551   1.278       .  A
C2551      C2878   1.476       .  S
O2552     Cr2561   2.057       .  S
O2552      C2560   1.272       .  A
O2553     Cr2561   1.954       .  S
O2553      C2554   1.256       .  A
C2554      O2555   1.274       .  A
C2554      C2782   1.484       .  S
O2555     Cr2562   2.038       .  S
O2556     Cr2562   1.963       .  S
O2556      C2557   1.256       .  A
C2557      O2558   1.277       .  A
C2557      C2894   1.488       .  S
O2558     Cr2563   2.038       .  S
O2559     Cr2563   1.951       .  S
O2559      C2560   1.248       .  A
C2560      C2833   1.480       .  S
Cr2561     O2564   1.756       .  S
Cr2562     O2564   1.761       .  S
Cr2563     O2564   1.757       .  S
O2565     Cr2583   2.023       .  S
O2565      C2573   1.271       .  A
O2566     Cr2583   1.957       .  S
O2566      C2567   1.252       .  A
C2567      O2568   1.264       .  A
C2567      C2817   1.479       .  S
O2568     Cr2584   2.018       .  S
O2569     Cr2584   1.953       .  S
O2569      C2570   1.252       .  A
O2571     Cr2585   2.029       .  S
O2572      C2573   1.260       .  A
C2573      C2910   1.484       .  S
O2574     Cr2583   1.963       .  S
O2575     Cr2583   2.039       .  S
O2575      C2576   1.273       .  A
C2576      O2577   1.256       .  A
C2576      C2926   1.478       .  S
O2577     Cr2584   1.956       .  S
O2578      C2579   1.273       .  A
C2579      O2580   1.267       .  A
C2579      C2830   1.503       .  S
O2580     Cr2585   1.987       .  S
O2581     Cr2585   2.036       .  S
O2581      C2582   1.271       .  A
C2582      C2753   1.492       .  S
Cr2583     O2586   1.763       .  S
Cr2584     O2586   1.761       .  S
O2587     Cr2605   2.015       .  S
O2587      C2595   1.269       .  A
O2588     Cr2605   1.964       .  S
O2588      C2589   1.258       .  A
C2589      O2590   1.261       .  A
C2589      C2721   1.492       .  S
O2590     Cr2606   2.007       .  S
O2591     Cr2606   1.968       .  S
O2591      C2592   1.257       .  A
C2592      O2593   1.271       .  A
C2592      C2785   1.487       .  S
O2593     Cr2607   2.019       .  S
O2594     Cr2607   1.974       .  S
O2594      C2595   1.261       .  A
C2595      C2705   1.487       .  S
O2596     Cr2605   1.968       .  S
O2596      C2604   1.258       .  A
O2597     Cr2605   2.022       .  S
O2597      C2598   1.268       .  A
C2598      O2599   1.255       .  A
C2598      C2686   1.467       .  S
O2599     Cr2606   1.956       .  S
O2600     Cr2606   1.995       .  S
O2600      C2601   1.264       .  A
C2601      O2602   1.267       .  A
C2601      C2734   1.481       .  S
O2602     Cr2607   1.995       .  S
O2603     Cr2607   2.032       .  S
O2603      C2604   1.268       .  A
C2604      C2798   1.496       .  S
Cr2605     O2608   1.766       .  S
Cr2606     O2608   1.767       .  S
Cr2607     O2608   1.771       .  S
O2609     Cr2627   1.912       .  S
O2609      C2617   1.239       .  A
O2610     Cr2627   2.026       .  S
O2610      C2611   1.271       .  A
C2611      O2612   1.262       .  A
C2611      C2718   1.469       .  S
O2612     Cr2628   1.969       .  S
O2613     Cr2628   2.032       .  S
O2613      C2614   1.273       .  A
C2614      O2615   1.255       .  A
C2614      C2750   1.498       .  S
O2615     Cr2629   1.969       .  S
O2616     Cr2629   2.081       .  S
O2616      C2617   1.279       .  A
C2617      C2654   1.479       .  S
O2618     Cr2627   2.042       .  S
O2618      C2626   1.269       .  A
O2619     Cr2627   1.947       .  S
O2619      C2620   1.255       .  A
C2620      O2621   1.270       .  A
C2620      C2769   1.470       .  S
O2621     Cr2628   2.031       .  S
O2622      C2623   1.258       .  A
C2623      C2670   1.480       .  S
O2624     Cr2629   2.044       .  S
O2625     Cr2629   1.946       .  S
O2625      C2626   1.247       .  A
C2626      C2737   1.475       .  S
Cr2627     O2630   1.749       .  S
Cr2628     O2630   1.760       .  S
Cr2629     O2630   1.760       .  S
O2631     Cr2649   1.966       .  S
O2631      C2639   1.251       .  A
O2632     Cr2649   2.041       .  S
O2632      C2633   1.278       .  A
C2633      O2634   1.248       .  A
C2633      C2657   1.481       .  S
O2635     Cr2650   2.026       .  S
C2636      O2637   1.259       .  A
O2637     Cr2651   1.952       .  S
O2638     Cr2651   2.026       .  S
O2638      C2639   1.263       .  A
C2639      C2702   1.479       .  S
O2640     Cr2649   2.063       .  S
O2640      C2648   1.281       .  A
O2641     Cr2649   1.975       .  S
C2642      O2643   1.273   1_455  A
C2642      C2865   1.495       .  S
O2643     Cr2650   2.035       .  S
O2644     Cr2650   1.969       .  S
O2644      C2645   1.257       .  A
C2645      O2646   1.266       .  A
C2645      C2689   1.478       .  S
O2647     Cr2651   1.937       .  S
O2647      C2648   1.253       .  A
C2648      C2673   1.472       .  S
Cr2649     O2652   1.761       .  S
Cr2651     O2652   1.762       .  S
C2653      C2654   1.398       .  A
C2653      C2658   1.413       .  A
C2653      H2660   1.083       .  S
C2654      C2655   1.430       .  A
C2655      C2656   1.400       .  A
C2655      C2662   1.524       .  S
C2656      C2657   1.391       .  A
C2656      H2661   1.084       .  S
C2657      C2658   1.429       .  A
C2658      C2659   1.520       .  S
C2659      F2663   1.385       .  S
C2659      F2664   1.383       .  S
C2659      F2665   1.380       .  S
C2662      F2666   1.379       .  S
C2662      F2667   1.381       .  S
C2662      F2668   1.385       .  S
C2669      C2670   1.406       .  A
C2669      C2674   1.410       .  A
C2669      H2676   1.081       .  S
C2670      C2671   1.412       .  A
C2671      C2672   1.408       .  A
C2671      C2678   1.515       .  S
C2672      C2673   1.406       .  A
C2672      H2677   1.083       .  S
C2673      C2674   1.412       .  A
C2674      C2675   1.516       .  S
C2675      F2679   1.384       .  S
C2675      F2680   1.383       .  S
C2675      F2681   1.383       .  S
C2678      F2683   1.383       .  S
C2678      F2684   1.385       .  S
C2685      C2686   1.398   1_545  A
C2685      H2692   1.080   1_545  S
C2686      C2687   1.411       .  A
C2687      C2694   1.518       .  S
C2688      C2689   1.405       .  A
C2688      H2693   1.084       .  S
C2689      C2690   1.422       .  A
C2690      C2691   1.521       .  S
C2691      F2695   1.385       .  S
C2691      F2696   1.382       .  S
C2691      F2697   1.383       .  S
C2694      F2698   1.384       .  S
C2694      F2699   1.384       .  S
C2694      F2700   1.382       .  S
C2701      C2702   1.402       .  A
C2701      C2706   1.409       .  A
C2701      H2708   1.084       .  S
C2702      C2703   1.415       .  A
C2703      C2704   1.405       .  A
C2703      C2710   1.516       .  S
C2704      C2705   1.405       .  A
C2704      H2709   1.083       .  S
C2705      C2706   1.421       .  A
C2706      C2707   1.518       .  S
C2707      F2711   1.385       .  S
C2707      F2712   1.382       .  S
C2707      F2713   1.384       .  S
C2710      F2714   1.380       .  S
C2710      F2715   1.383       .  S
C2710      F2716   1.385       .  S
C2717      C2718   1.398       .  A
C2717      C2722   1.410       .  A
C2717      H2724   1.083       .  S
C2718      C2719   1.410       .  A
C2719      C2720   1.399       .  A
C2719      C2726   1.514       .  S
C2720      C2721   1.407       .  A
C2720      H2725   1.082       .  S
C2721      C2722   1.427       .  A
C2722      C2723   1.519       .  S
C2723      F2727   1.385       .  S
C2723      F2728   1.379       .  S
C2723      F2729   1.383       .  S
C2726      F2730   1.382       .  S
C2726      F2731   1.381       .  S
C2726      F2732   1.382       .  S
C2733      C2734   1.405       .  A
C2733      C2738   1.401       .  A
C2733      H2740   1.085       .  S
C2734      C2735   1.416       .  A
C2735      C2736   1.410       .  A
C2735      C2742   1.517       .  S
C2736      H2741   1.081       .  S
C2739      F2743   1.384       .  S
C2739      F2744   1.383       .  S
C2739      F2745   1.383       .  S
C2742      F2746   1.382       .  S
C2742      F2747   1.383       .  S
C2742      F2748   1.385       .  S
C2749      C2754   1.405       .  A
C2749      H2756   1.081       .  S
C2750      C2751   1.426       .  A
C2751      C2752   1.413       .  A
C2751      C2758   1.519       .  S
C2752      C2753   1.404       .  A
C2752      H2757   1.084       .  S
C2754      C2755   1.524       .  S
C2755      F2759   1.385       .  S
C2755      F2760   1.383       .  S
C2755      F2761   1.381       .  S
C2758      F2762   1.383       .  S
C2758      F2763   1.383       .  S
C2758      F2764   1.385       .  S
C2765      C3190   1.404   1_554  A
C2765      H2772   1.082       .  S
C2766      C2767   1.423       .  A
C2767      C3188   1.403       .  A
C2767      C2774   1.521       .  S
C2768      C3187   1.403       .  A
C2768      C2769   1.403       .  A
C2768      H2773   1.084       .  S
C2770      C3185   1.404       .  A
C2770      C2771   1.518       .  S
C2771      F2775   1.384       .  S
C2771      F2777   1.382       .  S
C2774      F2778   1.381       .  S
C2774      F2779   1.383       .  S
C2774      F2780   1.385       .  S
C2781      C2782   1.403       .  A
C2781      C3206   1.408   1_554  A
C2781      H2788   1.084       .  S
C2782      C2783   1.424   1_554  A
C2783      C3204   1.403       .  A
C2783      C2790   1.523       .  S
C2784      C3203   1.402       .  A
C2784      C2785   1.403       .  A
C2784      H2789   1.082       .  S
C2785      C2786   1.419       .  A
C2786      C3201   1.410       .  A
C2786      C2787   1.517       .  S
C2787      F3211   1.385       .  S
C2787      F2792   1.384       .  S
C2787      F2793   1.382       .  S
C2790      F2794   1.383   1_556  S
C2790      F2795   1.383   1_556  S
C2790      F3216   1.385       .  S
F2791      C3207   1.385       .  S
F2796      C3210   1.385       .  S
C2797      C2798   1.406       .  A
C2797      C2802   1.408       .  A
C2797      H2804   1.083       .  S
C2798      C2799   1.418       .  A
C2799      C2800   1.414       .  A
C2799      C2806   1.518       .  S
C2800      C2801   1.412       .  A
C2800      H2805   1.083       .  S
C2801      C2802   1.421       .  A
C2802      C2803   1.518       .  S
C2803      F2807   1.385       .  S
C2803      F2808   1.383       .  S
C2803      F2809   1.382       .  S
C2806      F2810   1.382       .  S
C2806      F2811   1.384       .  S
C2806      F2812   1.385       .  S
C2813      C2814   1.409       .  A
C2813      C2818   1.410       .  A
C2813      H2820   1.083       .  S
C2814      C2815   1.423       .  A
C2815      C2816   1.403       .  A
C2815      C2822   1.524       .  S
C2816      C2817   1.402       .  A
C2816      H2821   1.084       .  S
C2817      C2818   1.414       .  A
C2818      C2819   1.517       .  S
C2819      F2823   1.385       .  S
C2819      F2824   1.382       .  S
C2819      F2825   1.383       .  S
C2822      F2826   1.383       .  S
C2822      F2827   1.384       .  S
C2822      F2828   1.385       .  S
C2829      C2830   1.412       .  A
C2829      H2836   1.081       .  S
C2830      C2831   1.426       .  A
C2831      C2838   1.520       .  S
C2832      C2833   1.403   1_455  A
C2832      H2837   1.081   1_455  S
C2833      C2834   1.412   1_655  A
C2834      C2835   1.519   1_455  S
C2835      F2839   1.384   1_655  S
C2835      F2840   1.380       .  S
C2835      F2841   1.383       .  S
C2838      F2842   1.383       .  S
C2838      F2843   1.383       .  S
C2838      F2844   1.385       .  S
C2845      C2846   1.409       .  A
C2845      C2850   1.402       .  A
C2845      H2852   1.082       .  S
C2847      C2848   1.405       .  A
C2847      C2854   1.520       .  S
C2848      H2853   1.082       .  S
C2849      C2850   1.418       .  A
C2850      C2851   1.520       .  S
C2851      F2855   1.385       .  S
C2851      F2856   1.383       .  S
C2851      F2857   1.383       .  S
C2854      F2858   1.383       .  S
C2854      F2859   1.383       .  S
C2854      F2860   1.385       .  S
C2861      C3286   1.416   1_554  A
C2861      H2868   1.082       .  S
C2862      C2863   1.435       .  A
C2863      C3284   1.414   1_554  A
C2863      C2870   1.524       .  S
C2864      C3283   1.413       .  A
C2864      C2865   1.397   1_655  A
C2864      H2869   1.083       .  S
C2866      C3281   1.416       .  A
C2866      C2867   1.519       .  S
C2867      F2871   1.385       .  S
C2867      F2872   1.383       .  S
C2867      F2873   1.383       .  S
C2870      F2874   1.384       .  S
C2870      F2875   1.384       .  S
C2870      F2876   1.385   1_554  S
C2877      C2878   1.410       .  A
C2877      C2882   1.410       .  A
C2877      H2884   1.080       .  S
C2878      C2879   1.414       .  A
C2879      C2880   1.410       .  A
C2879      C2886   1.516       .  S
C2880      C2881   1.409       .  A
C2880      H2885   1.080       .  S
C2881      C2882   1.410       .  A
C2882      C2883   1.516       .  S
C2883      F2887   1.384       .  S
C2883      F2888   1.383       .  S
C2886      F2890   1.382       .  S
C2886      F2891   1.383       .  S
C2886      F2892   1.383       .  S
C2893      C2894   1.401       .  A
C2893      C2898   1.402       .  A
C2893      H2900   1.084       .  S
C2894      C2895   1.426       .  A
C2895      C2896   1.414       .  A
C2895      C2902   1.519       .  S
C2896      C2897   1.402   1_565  A
C2896      H2901   1.083       .  S
C2897      C2898   1.418   1_545  A
C2899      F2903   1.383       .  S
C2899      F2904   1.382       .  S
C2899      F2905   1.384       .  S
C2902      F2906   1.380       .  S
C2902      F2907   1.382       .  S
C2902      F2908   1.385       .  S
C2909      C2910   1.402       .  A
C2909      C2914   1.405       .  A
C2909      H2916   1.083       .  S
C2910      C2911   1.420       .  A
C2911      C2912   1.411       .  A
C2912      C2913   1.405       .  A
C2912      H2917   1.083       .  S
C2913      C2914   1.420       .  A
C2914      C2915   1.519       .  S
C2915      F2919   1.385       .  S
C2915      F2920   1.382       .  S
C2915      F2921   1.383       .  S
C2918      F2922   1.382       .  S
C2918      F2923   1.384       .  S
C2918      F2924   1.385       .  S
C2925      C2926   1.397       .  A
C2925      C2930   1.413       .  A
C2925      H2932   1.083       .  S
C2926      C2927   1.415       .  A
C2927      C2928   1.406       .  A
C2927      C2934   1.519       .  S
C2928      C2929   1.408       .  A
C2928      H2933   1.082       .  S
C2929      C2930   1.431       .  A
C2931      F2935   1.383   1_455  S
C2931      F2936   1.384       .  S
C2931      F2937   1.385       .  S
C2934      F2938   1.382       .  S
C2934      F2939   1.383       .  S
C2934      F2940   1.385       .  S
O2941     Cr2959   1.963       .  S
O2941      C2949   1.249       .  A
O2942     Cr2959   2.042       .  S
O2942      C2943   1.276       .  A
C2943      O2944   1.253       .  A
C2943      C3301   1.483       .  S
O2944     Cr2960   1.954       .  S
O2945     Cr2960   2.030       .  S
O2945      C2946   1.272       .  A
C2946      O2947   1.259       .  A
C2946      C3266   1.488       .  S
O2947     Cr2961   1.949       .  S
O2948     Cr2961   2.027       .  S
O2948      C2949   1.264       .  A
C2949      C3333   1.483       .  S
O2950     Cr2959   2.057       .  S
O2950      C2958   1.280       .  A
O2951     Cr2959   1.959       .  S
O2951      C2952   1.251       .  A
C2952      O2953   1.275       .  A
C2952      C3282   1.513       .  S
O2953     Cr2960   2.047       .  S
O2954      C2955   1.265       .  A
C2955      C3349   1.503       .  S
O2956     Cr2961   2.018       .  S
O2957     Cr2961   1.936       .  S
O2957      C2958   1.256       .  A
Cr2959     O2962   1.759       .  S
Cr2960     O2962   1.767       .  S
Cr2961     O2962   1.760       .  S
O2963     Cr2981   1.943       .  S
O2963      C2971   1.248       .  A
O2964     Cr2981   2.023       .  S
O2964      C2965   1.270       .  A
C2965      O2966   1.258       .  A
C2965      C3234   1.490       .  S
O2966     Cr2982   1.962       .  S
O2967     Cr2982   2.044       .  S
O2967      C2968   1.275       .  A
C2968      O2969   1.258       .  A
C2968      C3221   1.502       .  S
O2969     Cr2983   1.966       .  S
O2970     Cr2983   2.070       .  S
O2970      C2971   1.278       .  A
C2971      C3298   1.477       .  S
O2972     Cr2981   2.053       .  S
O2972      C2980   1.271       .  A
O2973     Cr2981   1.952       .  S
O2973      C2974   1.255       .  A
C2974      O2975   1.275       .  A
C2974      C3202   1.487       .  S
O2975     Cr2982   2.041       .  S
O2976     Cr2982   1.962       .  S
O2976      C2977   1.256       .  A
C2977      O2978   1.278       .  A
C2977      C3314   1.489       .  S
O2978     Cr2983   2.041       .  S
O2979     Cr2983   1.951       .  S
O2979      C2980   1.248       .  A
C2980      C3253   1.478       .  S
Cr2981     O2984   1.756       .  S
Cr2982     O2984   1.762       .  S
Cr2983     O2984   1.756       .  S
O2985     Cr3003   2.023       .  S
O2985      C2993   1.271       .  A
O2986     Cr3003   1.958       .  S
O2986      C2987   1.252       .  A
C2987      O2988   1.263       .  A
C2987      C3237   1.474       .  S
O2988     Cr3004   2.016       .  S
O2989     Cr3004   1.951       .  S
O2989      C2990   1.252       .  A
O2991     Cr3005   2.030       .  S
O2992      C2993   1.260       .  A
C2993      C3330   1.486       .  S
O2994     Cr3003   1.963       .  S
O2995     Cr3003   2.040       .  S
O2995      C2996   1.273       .  A
C2996      O2997   1.257       .  A
C2996      C3346   1.478       .  S
O2997     Cr3004   1.957       .  S
O2998      C2999   1.273       .  A
C2999      O3000   1.267       .  A
C2999      C3250   1.504       .  S
O3000     Cr3005   1.989       .  S
O3001     Cr3005   2.035       .  S
O3001      C3002   1.271       .  A
C3002      C3173   1.491       .  S
Cr3003     O3006   1.762       .  S
Cr3004     O3006   1.761       .  S
O3007     Cr3025   2.014       .  S
O3007      C3015   1.269       .  A
O3008     Cr3025   1.964       .  S
O3008      C3009   1.258       .  A
C3009      O3010   1.261       .  A
C3009      C3141   1.495       .  S
O3010     Cr3026   2.011       .  S
O3011     Cr3026   1.965       .  S
O3011      C3012   1.257       .  A
C3012      O3013   1.271       .  A
C3012      C3205   1.488       .  S
O3013     Cr3027   2.020       .  S
O3014     Cr3027   1.975       .  S
O3014      C3015   1.262       .  A
C3015      C3125   1.485       .  S
O3016     Cr3025   1.968       .  S
O3016      C3024   1.258       .  A
O3017     Cr3025   2.022       .  S
O3017      C3018   1.268       .  A
C3018      O3019   1.255       .  A
C3018      C3106   1.467       .  S
O3019     Cr3026   1.956       .  S
O3020     Cr3026   1.998       .  S
O3020      C3021   1.264       .  A
C3021      O3022   1.267       .  A
C3021      C3154   1.483       .  S
O3022     Cr3027   1.994       .  S
O3023     Cr3027   2.032       .  S
O3023      C3024   1.269       .  A
C3024      C3218   1.497       .  S
Cr3025     O3028   1.765       .  S
Cr3026     O3028   1.768       .  S
Cr3027     O3028   1.772       .  S
O3029     Cr3047   1.912       .  S
O3029      C3037   1.237       .  A
O3030     Cr3047   2.028       .  S
O3030      C3031   1.271       .  A
C3031      O3032   1.262       .  A
C3031      C3138   1.471       .  S
O3032     Cr3048   1.972       .  S
O3033     Cr3048   2.029       .  S
O3033      C3034   1.273       .  A
C3034      O3035   1.256       .  A
C3034      C3170   1.497       .  S
O3035     Cr3049   1.970       .  S
O3036     Cr3049   2.087       .  S
O3036      C3037   1.280       .  A
C3037      C3074   1.482       .  S
O3038     Cr3047   2.047       .  S
O3038      C3046   1.269       .  A
O3039     Cr3047   1.947       .  S
O3039      C3040   1.255       .  A
C3040      O3041   1.270       .  A
C3040      C3189   1.470       .  S
O3041     Cr3048   2.031       .  S
O3042      C3043   1.258       .  A
C3043      C3090   1.477       .  S
O3044     Cr3049   2.046       .  S
O3045     Cr3049   1.947       .  S
O3045      C3046   1.247       .  A
C3046      C3157   1.478       .  S
Cr3047     O3050   1.747       .  S
Cr3048     O3050   1.759       .  S
Cr3049     O3050   1.760       .  S
O3051     Cr3069   1.967       .  S
O3051      C3059   1.252       .  A
O3052     Cr3069   2.041       .  S
O3052      C3053   1.278       .  A
C3053      O3054   1.248       .  A
C3053      C3077   1.484       .  S
O3055     Cr3070   2.026       .  S
C3056      O3057   1.259       .  A
O3057     Cr3071   1.951       .  S
O3058     Cr3071   2.024       .  S
O3058      C3059   1.263       .  A
C3059      C3122   1.479       .  S
O3060     Cr3069   2.060       .  S
O3060      C3068   1.280       .  A
O3061     Cr3069   1.976       .  S
C3062      O3063   1.273   1_455  A
C3062      C3285   1.500       .  S
O3063     Cr3070   2.036       .  S
O3064     Cr3070   1.967       .  S
O3064      C3065   1.257       .  A
C3065      O3066   1.267       .  A
C3065      C3109   1.476       .  S
O3067     Cr3071   1.937       .  S
O3067      C3068   1.253       .  A
C3068      C3093   1.470       .  S
Cr3069     O3072   1.762       .  S
Cr3071     O3072   1.763       .  S
C3073      C3074   1.398       .  A
C3073      C3078   1.414       .  A
C3073      H3080   1.083       .  S
C3074      C3075   1.432       .  A
C3075      C3076   1.401       .  A
C3075      C3082   1.525       .  S
C3076      C3077   1.391       .  A
C3076      H3081   1.084       .  S
C3077      C3078   1.429       .  A
C3078      C3079   1.520       .  S
C3079      F3083   1.384       .  S
C3079      F3084   1.383       .  S
C3079      F3085   1.381       .  S
C3082      F3086   1.379       .  S
C3082      F3087   1.381       .  S
C3082      F3088   1.385       .  S
C3089      C3090   1.406       .  A
C3089      C3094   1.409       .  A
C3089      H3096   1.082       .  S
C3090      C3091   1.412       .  A
C3091      C3092   1.407       .  A
C3091      C3098   1.515       .  S
C3092      C3093   1.406       .  A
C3092      H3097   1.083       .  S
C3093      C3094   1.411       .  A
C3094      C3095   1.515       .  S
C3095      F3099   1.384       .  S
C3095      F3100   1.383       .  S
C3095      F3101   1.383       .  S
C3098      F3103   1.383       .  S
C3098      F3104   1.385       .  S
C3105      C3106   1.398       .  A
C3105      H3112   1.081       .  S
C3106      C3107   1.411       .  A
C3107      C3114   1.518       .  S
C3108      C3109   1.405       .  A
C3108      H3113   1.083       .  S
C3109      C3110   1.421       .  A
C3110      C3111   1.521       .  S
C3111      F3115   1.385       .  S
C3111      F3116   1.382       .  S
C3111      F3117   1.383       .  S
C3114      F3118   1.384       .  S
C3114      F3119   1.384       .  S
C3114      F3120   1.382       .  S
C3121      C3122   1.403       .  A
C3121      C3126   1.409       .  A
C3121      H3128   1.084       .  S
C3122      C3123   1.414       .  A
C3123      C3124   1.405       .  A
C3123      C3130   1.516       .  S
C3124      C3125   1.405       .  A
C3124      H3129   1.083       .  S
C3125      C3126   1.420       .  A
C3126      C3127   1.517       .  S
C3127      F3131   1.385       .  S
C3127      F3132   1.382       .  S
C3127      F3133   1.384       .  S
C3130      F3134   1.381       .  S
C3130      F3135   1.383       .  S
C3130      F3136   1.384       .  S
C3137      C3138   1.399       .  A
C3137      C3142   1.411       .  A
C3137      H3144   1.083       .  S
C3138      C3139   1.411       .  A
C3139      C3140   1.399       .  A
C3139      C3146   1.515       .  S
C3140      C3141   1.407       .  A
C3140      H3145   1.082       .  S
C3141      C3142   1.428       .  A
C3142      C3143   1.519       .  S
C3143      F3147   1.385       .  S
C3143      F3148   1.380       .  S
C3143      F3149   1.382       .  S
C3146      F3150   1.382       .  S
C3146      F3151   1.381       .  S
C3146      F3152   1.382       .  S
C3153      C3154   1.405       .  A
C3153      C3158   1.401       .  A
C3153      H3160   1.085       .  S
C3154      C3155   1.417       .  A
C3155      C3156   1.410       .  A
C3155      C3162   1.517       .  S
C3156      H3161   1.082       .  S
C3159      F3163   1.384       .  S
C3159      F3164   1.383       .  S
C3159      F3165   1.383       .  S
C3162      F3166   1.382       .  S
C3162      F3167   1.383       .  S
C3162      F3168   1.385       .  S
C3169      C3174   1.406       .  A
C3169      H3176   1.082       .  S
C3170      C3171   1.425       .  A
C3171      C3172   1.412       .  A
C3171      C3178   1.518       .  S
C3172      C3173   1.403       .  A
C3172      H3177   1.084       .  S
C3174      C3175   1.524       .  S
C3175      F3179   1.385       .  S
C3175      F3180   1.383       .  S
C3175      F3181   1.381       .  S
C3178      F3182   1.383       .  S
C3178      F3183   1.382       .  S
C3178      F3184   1.385       .  S
C3185      H3192   1.082       .  S
C3186      C3187   1.423       .  A
C3187      C3194   1.521       .  S
C3188      C3189   1.403   1_554  A
C3188      H3193   1.084   1_554  S
C3190      C3191   1.517       .  S
C3191      F3195   1.385       .  S
C3191      F3197   1.382       .  S
C3194      F3198   1.381       .  S
C3194      F3199   1.383       .  S
C3194      F3200   1.385       .  S
C3201      C3202   1.405       .  A
C3201      H3208   1.083       .  S
C3202      C3203   1.425       .  A
C3203      C3210   1.524       .  S
C3204      C3205   1.404       .  A
C3204      H3209   1.083       .  S
C3205      C3206   1.420       .  A
C3206      C3207   1.515       .  S
C3207      F3212   1.384       .  S
C3207      F3213   1.382       .  S
C3210      F3214   1.384       .  S
C3210      F3215   1.383       .  S
C3217      C3218   1.407       .  A
C3217      C3222   1.408       .  A
C3217      H3224   1.083       .  S
C3218      C3219   1.418       .  A
C3219      C3220   1.415       .  A
C3219      C3226   1.518       .  S
C3220      C3221   1.412       .  A
C3220      H3225   1.083       .  S
C3221      C3222   1.421       .  A
C3222      C3223   1.517       .  S
C3223      F3227   1.385       .  S
C3223      F3228   1.383       .  S
C3223      F3229   1.382       .  S
C3226      F3230   1.382       .  S
C3226      F3231   1.383       .  S
C3226      F3232   1.385       .  S
C3233      C3234   1.411       .  A
C3233      C3238   1.410       .  A
C3233      H3240   1.083       .  S
C3234      C3235   1.425       .  A
C3235      C3236   1.402       .  A
C3235      C3242   1.524       .  S
C3236      C3237   1.399       .  A
C3236      H3241   1.084       .  S
C3237      C3238   1.411       .  A
C3238      C3239   1.517       .  S
C3239      F3243   1.385       .  S
C3239      F3244   1.382       .  S
C3239      F3245   1.383       .  S
C3242      F3246   1.383       .  S
C3242      F3247   1.384       .  S
C3242      F3248   1.385       .  S
C3249      C3250   1.412       .  A
C3249      H3256   1.081       .  S
C3250      C3251   1.426       .  A
C3251      C3258   1.520       .  S
C3252      C3253   1.403   1_455  A
C3252      H3257   1.082   1_455  S
C3253      C3254   1.411   1_655  A
C3254      C3255   1.518   1_455  S
C3255      F3259   1.384   1_655  S
C3255      F3260   1.380       .  S
C3255      F3261   1.383       .  S
C3258      F3262   1.383       .  S
C3258      F3263   1.383       .  S
C3258      F3264   1.385       .  S
C3265      C3266   1.409       .  A
C3265      C3270   1.402       .  A
C3265      H3272   1.082       .  S
C3267      C3268   1.404       .  A
C3267      C3274   1.520       .  S
C3268      H3273   1.081       .  S
C3269      C3270   1.418       .  A
C3270      C3271   1.519       .  S
C3271      F3275   1.385       .  S
C3271      F3276   1.383       .  S
C3271      F3277   1.383       .  S
C3274      F3278   1.383       .  S
C3274      F3279   1.383       .  S
C3274      F3280   1.385       .  S
C3281      H3288   1.082       .  S
C3282      C3283   1.437       .  A
C3283      C3290   1.524       .  S
C3284      C3285   1.399   1_655  A
C3284      H3289   1.083       .  S
C3286      C3287   1.519       .  S
C3287      F3291   1.385   1_556  S
C3287      F3292   1.383       .  S
C3287      F3293   1.383       .  S
C3290      F3294   1.383       .  S
C3290      F3295   1.384       .  S
C3290      F3296   1.385       .  S
C3297      C3298   1.410       .  A
C3297      C3302   1.410       .  A
C3297      H3304   1.080       .  S
C3298      C3299   1.414       .  A
C3299      C3300   1.411       .  A
C3299      C3306   1.516       .  S
C3300      C3301   1.408       .  A
C3300      H3305   1.081       .  S
C3301      C3302   1.410       .  A
C3302      C3303   1.516       .  S
C3303      F3307   1.384       .  S
C3303      F3308   1.383       .  S
C3306      F3310   1.382       .  S
C3306      F3311   1.383       .  S
C3306      F3312   1.384       .  S
C3313      C3314   1.401       .  A
C3313      C3318   1.403       .  A
C3313      H3320   1.084       .  S
C3314      C3315   1.426       .  A
C3315      C3316   1.414       .  A
C3315      C3322   1.518       .  S
C3316      C3317   1.402       .  A
C3316      H3321   1.083       .  S
C3317      C3318   1.418       .  A
C3319      F3323   1.383       .  S
C3319      F3324   1.382       .  S
C3319      F3325   1.384       .  S
C3322      F3326   1.379       .  S
C3322      F3327   1.382       .  S
C3322      F3328   1.385       .  S
C3329      C3330   1.402       .  A
C3329      C3334   1.405       .  A
C3329      H3336   1.083       .  S
C3330      C3331   1.421       .  A
C3331      C3332   1.411       .  A
C3332      C3333   1.404       .  A
C3332      H3337   1.083       .  S
C3333      C3334   1.419       .  A
C3334      C3335   1.518       .  S
C3335      F3339   1.384       .  S
C3335      F3340   1.382       .  S
C3335      F3341   1.384       .  S
C3338      F3342   1.382       .  S
C3338      F3343   1.384       .  S
C3338      F3344   1.385       .  S
C3345      C3346   1.397       .  A
C3345      C3350   1.413       .  A
C3345      H3352   1.083       .  S
C3346      C3347   1.414       .  A
C3347      C3348   1.406       .  A
C3347      C3354   1.518       .  S
C3348      C3349   1.408       .  A
C3348      H3353   1.082       .  S
C3349      C3350   1.432       .  A
C3351      F3355   1.383   1_455  S
C3351      F3356   1.384       .  S
C3351      F3357   1.385       .  S
C3354      F3358   1.382       .  S
C3354      F3359   1.382       .  S
C3354      F3360   1.385       .  S
