geometry optimzed in LAMMPS
_audit_creation_date              2020-11-30 
_audit_creation_method            'lammps2cif' 
_symmetry_space_group_name_H-M    'P1' 
_symmetry_Int_Tables_number       1 
_symmetry_cell_setting            triclinic 
loop_ 
_symmetry_equiv_pos_as_xyz 
  x,y,z 
_cell_length_a                    30.231705116074682 
_cell_length_b                    33.810908368773795 
_cell_length_c                    22.333391766921633 
_cell_angle_alpha                 91.95664765833463 
_cell_angle_beta                  90.00199523407386 
_cell_angle_gamma                 89.75623385146794 
loop_ 
_atom_site_label 
_atom_site_type_symbol 
_atom_site_fract_x 
_atom_site_fract_y 
_atom_site_fract_z 
_atom_site_charge 
Fe1        Fe  0.23672190  0.42214952  0.33838885     1.65780
Fe2        Fe  0.24418595  0.36814885  0.46460717     1.73250
Fe3        Fe  0.26349705  0.32380648  0.32744731     1.54420
O4          O  0.20929811  0.33035030  0.27226563    -0.80360
O5          O  0.29802127  0.33136653  0.47049130    -0.78660
O6          O  0.19631200  0.39540932  0.27299553    -0.82870
O7          O  0.29379134  0.41810921  0.28733185    -0.77720
O8          O  0.22538041  0.28675351  0.37809890    -0.79500
O9          O  0.28559061  0.41530878  0.47925257    -0.82240
C10         C  0.31683777  0.38959425  0.26607358     0.98530
C11         C  0.18673012  0.35995702  0.25662085     1.05960
O12         O  0.24801208  0.37144276  0.37683681    -1.11220
O13         O  0.19040264  0.40505376  0.47273894    -0.73660
O14         O  0.17945616  0.43354706  0.38560183    -0.77140
O15         O  0.30624896  0.35368672  0.27244281    -0.77830
C16         C  0.16846852  0.42723331  0.43905403     0.97430
O17         O  0.27319295  0.45435924  0.40216192    -0.75790
O18         O  0.20223346  0.32054206  0.45981948    -0.80980
C19         C  0.32526670  0.31543400  0.43387347     1.00050
C20         C  0.20374749  0.28929253  0.42683511     1.05970
O21         O  0.31845513  0.31258379  0.37802503    -0.76630
C22         C  0.28949739  0.44794387  0.45364214     1.04270
Fe23       Fe  0.00573746  0.07480997  0.32183452     1.65780
Fe24       Fe  0.99582339  0.11840949  0.45986666     1.73250
Fe25       Fe  0.49915885  0.16922794  0.33069250     1.54420
O26         O  0.06144307  0.16039199  0.29764996    -0.80360
O27         O  0.44554456  0.15608730  0.45984932    -0.78660
O28         O  0.04119068  0.10309414  0.25655642    -0.82870
O29         O  0.44730182  0.08377726  0.27991156    -0.77720
O30         O  0.52935504  0.20141345  0.39888407    -0.79500
O31         O  0.45114717  0.07046976  0.45419416    -0.82240
C32         C  0.43866927  0.11625531  0.25496320     0.98530
C33         C  0.06977771  0.13004037  0.26429772     1.05960
O34         O  0.99990898  0.12215188  0.37345107    -1.11220
O35         O  0.04804195  0.07919077  0.46004805    -0.73660
O36         O  0.06474048  0.06216720  0.36426174    -0.77140
O37         O  0.46614207  0.14468003  0.25649254    -0.77830
C38         C  0.07413546  0.06469223  0.42002282     0.97430
O39         O  0.97305594  0.03726391  0.37678346    -0.75790
O40         O  0.03980608  0.16409883  0.47830851    -0.80980
C41         C  0.42462473  0.17668407  0.42225923     1.00050
C42         C  0.04406894  0.19760807  0.45526542     1.05970
O43         O  0.43804291  0.18203681  0.36898872    -0.76630
C44         C  0.45401005  0.03772421  0.42507536     1.04270
Fe45       Fe  0.49863458  0.32812585  0.13078517     1.65780
Fe46       Fe  0.99534581  0.38125873  0.99867918     1.73250
Fe47       Fe  0.00387657  0.42510413  0.13676940     1.54420
O48         O  0.44442812  0.41292201  0.18062728    -0.80360
O49         O  0.04734345  0.42035179  0.99916621    -0.78660
O50         O  0.46433527  0.35231092  0.20455122    -0.82870
O51         O  0.05958493  0.33937005  0.16244451    -0.77720
O52         O  0.97148772  0.46258315  0.08107124    -0.79500
O53         O  0.03982615  0.33550019  0.98130467    -0.82240
C54         C  0.06760100  0.36975698  0.19571328     0.98530
C55         C  0.43623950  0.38047194  0.20550833     1.05960
O56         O  0.50024999  0.37860891  0.09146439    -1.11220
O57         O  0.44591485  0.34202099  0.00083034    -0.73660
O58         O  0.43819656  0.31544912  0.09133139    -0.77140
O59         O  0.03894838  0.39692481  0.20278407    -0.77830
C60         C  0.42491502  0.32132109  0.03814396     0.97430
O61         O  0.52971516  0.29559121  0.06308731    -0.75790
O62         O  0.45224991  0.42760609  0.00560029    -0.80980
C63         C  0.07301804  0.43486200  0.03951354     1.00050
C64         C  0.45314633  0.46003504  0.03573271     1.05970
O65         O  0.06316788  0.43744819  0.09513102    -0.76630
C66         C  0.04433474  0.30214484  0.00481944     1.04270
Fe67       Fe  0.26562641  0.17521152  0.13365518     1.65780
Fe68       Fe  0.24650475  0.13153902  0.99596344     1.73250
Fe69       Fe  0.23886858  0.07714974  0.12173278     1.54420
O70         O  0.29610287  0.08026036  0.17242495    -0.80360
O71         O  0.19274716  0.09481561  0.98755200    -0.78660
O72         O  0.30887501  0.14454442  0.18772438    -0.82870
O73         O  0.21171878  0.16866425  0.18918033    -0.77720
O74         O  0.27469401  0.04486158  0.05715649    -0.79500
O75         O  0.20433706  0.17927437  0.00137565    -0.82240
C76         C  0.18920260  0.13916897  0.20459119     0.98530
C77         C  0.31930472  0.10844746  0.19383999     1.05960
O78         O  0.25029062  0.12790803  0.08373720    -1.11220
O79         O  0.30025593  0.16827616  0.99026994    -0.73660
O80         O  0.32015449  0.18697983  0.08291681    -0.77140
O81         O  0.19882029  0.10374385  0.18785261    -0.77830
C82         C  0.32702802  0.18453359  0.02706703     0.97430
O83         O  0.22688776  0.21256694  0.08375213    -0.75790
O84         O  0.28804037  0.08419443  0.98080512    -0.80980
C85         C  0.17056132  0.07309419  0.02144174     1.00050
C86         C  0.29111299  0.05123368  0.00577085     1.05970
O87         O  0.18140812  0.06685358  0.07496363    -0.76630
C88         C  0.20529654  0.21026989  0.03494832     1.04270
C89         C  0.36101376  0.09865090  0.22538037    -0.15120
C90         C  0.39628989  0.12277321  0.22325459    -0.30290
H91         H  0.36363222  0.07057647  0.24737485     0.13910
H92         H  0.39331207  0.15010913  0.19927130     0.14480
C93         C  0.14868420  0.14693815  0.24091457    -0.15120
C94         C  0.11248982  0.12440848  0.23233455    -0.30290
H95         H  0.14714834  0.17310654  0.27044685     0.13910
H96         H  0.11443756  0.09927591  0.20071761     0.14480
C97         C  0.37008766  0.19719206  0.00494830    -0.15120
C98         C  0.38101191  0.19175902  0.44096441    -0.30290
H99         H  0.39656914  0.19979594  0.03780975     0.13910
H100        H  0.35486617  0.19124331  0.40755805     0.14480
C101        C  0.12860533  0.05705202  0.99903525    -0.15120
C102        C  0.11910271  0.05497461  0.43933668    -0.30290
H103        H  0.10239615  0.05358687  0.03175730     0.13910
H104        H  0.14527691  0.05637144  0.40611082     0.14480
C105        C  0.44145706  0.49628656  0.51940943    -0.15120
C106        C  0.43666087  0.00099853  0.45021558    -0.30290
H107        H  0.93648532  0.52397421  0.54033246     0.13910
H108        H  0.43823484  0.97464901  0.42098201     0.14480
C109        C  0.06017022  0.23111581  0.49368947    -0.15120
C110        C  0.06140625  0.26858285  0.96720589    -0.30290
H111        H  0.06028987  0.22665100  0.54165269     0.13910
H112        H  0.06165032  0.27272295  0.42572964     0.14480
C113        C  0.35862550  0.39871319  0.23457233    -0.15120
C114        C  0.39365066  0.37397904  0.23649095    -0.30290
H115        H  0.36161383  0.42690028  0.21303333     0.13910
H116        H  0.39044659  0.34653305  0.26007507     0.14480
C117        C  0.11007688  0.37519038  0.22820886    -0.15120
C118        C  0.14628079  0.35230982  0.22024897    -0.30290
H119        H  0.11187631  0.40046866  0.25954200     0.13910
H120        H  0.14485784  0.32602280  0.19097643     0.14480
C121        C  0.38127614  0.30670794  0.01958146    -0.15120
C122        C  0.36863145  0.30376459  0.45648676    -0.30290
H123        H  0.35528662  0.30717053  0.05322187     0.13910
H124        H  0.39550054  0.30155213  0.42414333     0.14480
C125        C  0.11805569  0.44454904  0.02080366    -0.15120
C126        C  0.12664215  0.44370374  0.46179352    -0.30290
H127        H  0.14400220  0.44303092  0.05435830     0.13910
H128        H  0.10024217  0.44728658  0.42933832     0.14480
C129        C  0.30851923  0.48097894  0.48977309    -0.15120
C130        C  0.31232974  0.01761230  0.47002169    -0.30290
H131        H  0.30976156  0.47703667  0.53786758     0.13910
H132        H  0.31340017  0.02097071  0.42178984     0.14480
C133        C  0.18559576  0.24703726  0.01332915    -0.15120
C134        C  0.18479765  0.25254724  0.44908891    -0.30290
H135        H  0.18618054  0.27200589  0.53940977     0.13910
H136        H  0.18561086  0.22709663  0.41799666     0.14480
Fe137      Fe  0.24018484  0.42168687  0.84136652     1.65780
Fe138      Fe  0.24664547  0.36852398  0.96893292     1.73250
Fe139      Fe  0.26523760  0.32295889  0.83217600     1.54420
O140        O  0.21125882  0.33015776  0.77627635    -0.80360
O141        O  0.30127678  0.33262062  0.97554819    -0.78660
O142        O  0.19891894  0.39525035  0.77673465    -0.82870
O143        O  0.29727936  0.41656780  0.79020606    -0.77720
O144        O  0.22584886  0.28676103  0.88240901    -0.79500
O145        O  0.28727760  0.41619338  0.98322639    -0.82240
C146        C  0.32038782  0.38763236  0.77045155     0.98530
C147        C  0.18876890  0.35988458  0.76075205     1.05960
O148        O  0.25058436  0.37110905  0.88092771    -1.11220
O149        O  0.19204743  0.40468729  0.97548068    -0.73660
O150        O  0.18318636  0.43412678  0.88857384    -0.77140
O151        O  0.30928349  0.35193237  0.77772754    -0.77830
C152        C  0.17092771  0.42720918  0.94131666     0.97430
O153        O  0.27735543  0.45388945  0.90406147    -0.75790
O154        O  0.20543134  0.32041702  0.96553370    -0.80980
C155        C  0.32756336  0.31515754  0.93910964     1.00050
C156        C  0.20521146  0.28947093  0.93189087     1.05970
O157        O  0.31970811  0.31082205  0.88360030    -0.76630
C158        C  0.29263244  0.44811691  0.95625230     1.04270
Fe159      Fe  0.00638058  0.07372401  0.82116961     1.65780
Fe160      Fe  0.99617460  0.11896973  0.95772629     1.73250
Fe161      Fe  0.49807030  0.17181391  0.83641938     1.54420
O162        O  0.06143019  0.15946572  0.79416697    -0.80360
O163        O  0.44397611  0.15772940  0.96566704    -0.78660
O164        O  0.04192948  0.10136208  0.75496293    -0.82870
O165        O  0.44433468  0.08689678  0.78645292    -0.77720
O166        O  0.52930699  0.20450363  0.90356156    -0.79500
O167        O  0.45229755  0.07178419  0.96380205    -0.82240
C168        C  0.43643088  0.11924395  0.76076963     0.98530
C169        C  0.07007944  0.12885538  0.76160472     1.05960
O170        O  0.00038372  0.12165153  0.87124290    -1.11220
O171        O  0.04817574  0.07965628  0.95921309    -0.73660
O172        O  0.06553855  0.06188064  0.86394339    -0.77140
O173        O  0.46402024  0.14758540  0.76277593    -0.77830
C174        C  0.07458258  0.06491179  0.91980118     0.97430
O175        O  0.97400782  0.03674553  0.87760479    -0.75790
O176        O  0.04045962  0.16463755  0.97430303    -0.80980
C177        C  0.42365911  0.17904569  0.92829917     1.00050
C178        C  0.04465397  0.19786248  0.95037553     1.05970
O179        O  0.43759929  0.18523844  0.87555594    -0.76630
C180        C  0.45410097  0.03927552  0.93390599     1.04270
Fe181      Fe  0.49503538  0.32095824  0.62721506     1.65780
Fe182      Fe  0.99500386  0.38141961  0.50398891     1.73250
Fe183      Fe  0.00533844  0.42661619  0.64075934     1.54420
O184        O  0.45132685  0.40740005  0.68815138    -0.80360
O185        O  0.04697424  0.42026054  0.50235913    -0.78660
O186        O  0.46349829  0.34386538  0.70339832    -0.82870
O187        O  0.06011103  0.34049316  0.66849842    -0.77720
O188        O  0.97275685  0.46376098  0.58444498    -0.79500
O189        O  0.03907842  0.33527390  0.48717229    -0.82240
C190        C  0.06907711  0.37119435  0.70058391     0.98530
C191        C  0.43960378  0.37467424  0.70960120     1.05960
O192        O  0.50101368  0.37282992  0.59148825    -1.11220
O193        O  0.44337524  0.34082546  0.49926514    -0.73660
O194        O  0.43383484  0.31303825  0.58816125    -0.77140
O195        O  0.04106977  0.39900530  0.70699060    -0.77830
C196        C  0.42132074  0.32010060  0.53523537     0.97430
O197        O  0.52450736  0.28977505  0.55704996    -0.75790
O198        O  0.45363350  0.42634575  0.51035206    -0.80980
C199        C  0.07321977  0.43522144  0.54156271     1.00050
C200        C  0.45672831  0.45783561  0.54262116     1.05970
O201        O  0.06432949  0.43817353  0.59748491    -0.76630
C202        C  0.04372296  0.30210543  0.51125684     1.04270
Fe203      Fe  0.26590295  0.17578200  0.62953653     1.65780
Fe204      Fe  0.24684572  0.13082206  0.49268906     1.73250
Fe205      Fe  0.23988430  0.07745934  0.61988722     1.54420
O206        O  0.29623449  0.08165203  0.67212654    -0.80360
O207        O  0.19263356  0.09465491  0.48543611    -0.78660
O208        O  0.30905123  0.14605616  0.68481023    -0.82870
O209        O  0.21168201  0.16932582  0.68508652    -0.77720
O210        O  0.27718861  0.04513655  0.55715934    -0.79500
O211        O  0.20513810  0.17892638  0.49676338    -0.82240
C212        C  0.18902747  0.13982579  0.70047683     0.98530
C213        C  0.31915743  0.11014601  0.69303810     1.05960
O214        O  0.25084098  0.12795033  0.58065483    -1.11220
O215        O  0.30103850  0.16687189  0.48600762    -0.73660
O216        O  0.32067621  0.18703701  0.57817721    -0.77140
O217        O  0.19881735  0.10436095  0.68425934    -0.77830
C218        C  0.32784936  0.18350030  0.52235576     0.97430
O219        O  0.22708314  0.21259921  0.57900296    -0.75790
O220        O  0.28791745  0.08309253  0.47844984    -0.80980
C221        C  0.17126312  0.07239919  0.51943921     1.00050
C222        C  0.29286048  0.05096327  0.50519750     1.05970
O223        O  0.18306314  0.06567547  0.57241081    -0.76630
C224        C  0.20567526  0.21001241  0.53012059     1.04270
C225        C  0.36004444  0.10086729  0.72676030    -0.15120
C226        C  0.39481906  0.12562286  0.72727806    -0.30290
H227        H  0.36253691  0.07265210  0.74838757     0.13910
H228        H  0.39212652  0.15312451  0.70366552     0.14480
C229        C  0.14820167  0.14745354  0.73631873    -0.15120
C230        C  0.11279179  0.12364739  0.72943943    -0.30290
H231        H  0.14588333  0.17421222  0.76448417     0.13910
H232        H  0.11543449  0.09785218  0.69919862     0.14480
C233        C  0.37124300  0.19519089  0.49967131    -0.15120
C234        C  0.38006012  0.19412533  0.94642650    -0.30290
H235        H  0.39785314  0.19769567  0.53233774     0.13910
H236        H  0.35408855  0.19353189  0.91276631     0.14480
C237        C  0.12906726  0.05630264  0.49800020    -0.15120
C238        C  0.11938796  0.05547251  0.94011164    -0.30290
H239        H  0.10327687  0.05276567  0.53130088     0.13910
H240        H  0.14594144  0.05678140  0.90743229     0.14480
C241        C  0.43595503  0.49681634  0.01011246    -0.15120
C242        C  0.43874909  0.00193141  0.96008753    -0.30290
H243        H  0.93464630  0.52277372  0.03838218     0.13910
H244        H  0.43784188  0.97608766  0.92980817     0.14480
C245        C  0.06161519  0.23149757  0.98764802    -0.15120
C246        C  0.06047581  0.26832638  0.47368933    -0.30290
H247        H  0.06255821  0.22729370  0.03566891     0.13910
H248        H  0.06194383  0.27280926  0.91918370     0.14480
C249        C  0.36281147  0.39591510  0.73955589    -0.15120
C250        C  0.39724018  0.37052882  0.74235766    -0.30290
H251        H  0.36647105  0.42360532  0.71682953     0.13910
H252        H  0.39302615  0.34340123  0.76647067     0.14480
C253        C  0.11201778  0.37622057  0.73250227    -0.15120
C254        C  0.14776382  0.35255419  0.72502866    -0.30290
H255        H  0.11458505  0.40188151  0.76297853     0.13910
H256        H  0.14557560  0.32593792  0.69656991     0.14480
C257        C  0.37772361  0.30652762  0.51528317    -0.15120
C258        C  0.37122551  0.30344479  0.96105657    -0.30290
H259        H  0.35129679  0.30674805  0.54828847     0.13910
H260        H  0.39763717  0.30094091  0.92806382     0.14480
C261        C  0.11771374  0.44506493  0.52084328    -0.15120
C262        C  0.12846615  0.44337948  0.96226789    -0.30290
H263        H  0.14446821  0.44367525  0.55323255     0.13910
H264        H  0.10289049  0.44704176  0.92865563     0.14480
C265        C  0.31217904  0.48130090  0.99138615    -0.15120
C266        C  0.30898450  0.01781586  0.96903459    -0.30290
H267        H  0.31324304  0.47793411  0.03962079     0.13910
H268        H  0.30964513  0.02175925  0.92092502     0.14480
C269        C  0.18550912  0.24654311  0.50834291    -0.15120
C270        C  0.18521787  0.25313419  0.95407752    -0.30290
H271        H  0.18668018  0.27244113  0.04448028     0.13910
H272        H  0.18537911  0.22771729  0.92290710     0.14480
Fe273      Fe  0.24017246  0.92160938  0.34156279     1.65780
Fe274      Fe  0.24669631  0.86838193  0.46905812     1.73250
Fe275      Fe  0.26527337  0.82289031  0.33222973     1.54420
O276        O  0.21130787  0.83011826  0.27631151    -0.80360
O277        O  0.30136477  0.83252252  0.47560178    -0.78660
O278        O  0.19887473  0.89519961  0.27696049    -0.82870
O279        O  0.29723317  0.91653247  0.29031650    -0.77720
O280        O  0.22586798  0.78666064  0.38238376    -0.79500
O281        O  0.28728346  0.91607551  0.48340203    -0.82240
C282        C  0.32038373  0.88762038  0.27057366     0.98530
C283        C  0.18877320  0.85984135  0.26088011     1.05960
O284        O  0.25060996  0.87101231  0.38105290    -1.11220
O285        O  0.19206310  0.90449403  0.47569007    -0.73660
O286        O  0.18319849  0.93402369  0.38885933    -0.77140
O287        O  0.30933051  0.85190944  0.27786155    -0.77830
C288        C  0.17093934  0.92704924  0.44158362     0.97430
O289        O  0.27738735  0.95377396  0.40423465    -0.75790
O290        O  0.20552763  0.82025233  0.46560239    -0.80980
C291        C  0.32762800  0.81505256  0.43914074     1.00050
C292        C  0.20526175  0.78933908  0.43189121     1.05970
O293        O  0.31973926  0.81070963  0.38364188    -0.76630
C294        C  0.29266130  0.94799359  0.45642312     1.04270
Fe295      Fe  0.00643772  0.57375579  0.32121190     1.65780
Fe296      Fe  0.99613373  0.61895963  0.45778308     1.73250
Fe297      Fe  0.49813000  0.67176523  0.33655985     1.54420
O298        O  0.06145762  0.65951916  0.29428215    -0.80360
O299        O  0.44399072  0.65766543  0.46576149    -0.78660
O300        O  0.04198799  0.60141832  0.25504267    -0.82870
O301        O  0.44437114  0.58687319  0.28648975    -0.77720
O302        O  0.52937721  0.70440382  0.40375494    -0.79500
O303        O  0.45222219  0.57171784  0.46377875    -0.82240
C304        C  0.43647365  0.61923506  0.26084532     0.98530
C305        C  0.07012446  0.62891814  0.26170560     1.05960
O306        O  0.00039040  0.62166919  0.37130537    -1.11220
O307        O  0.04816351  0.57967262  0.45930682    -0.73660
O308        O  0.06558472  0.56193136  0.36404383    -0.77140
O309        O  0.46406638  0.64757633  0.26288991    -0.77830
C310        C  0.07460120  0.56495302  0.41991295     0.97430
O311        O  0.97405311  0.53674995  0.37758027    -0.75790
O312        O  0.04038115  0.66464475  0.47443572    -0.80980
C313        C  0.42370335  0.67901267  0.42840782     1.00050
C314        C  0.04459304  0.69787250  0.45052247     1.05970
O315        O  0.43766027  0.68521437  0.37567709    -0.76630
C316        C  0.45404427  0.53921331  0.43387461     1.04270
Fe317      Fe  0.49508952  0.82105042  0.12739648     1.65780
Fe318      Fe  0.99502349  0.88145880  0.00414059     1.73250
Fe319      Fe  0.00537736  0.92661991  0.14092544     1.54420
O320        O  0.45133288  0.90748358  0.18830273    -0.80360
O321        O  0.04700829  0.92029610  0.00252975    -0.78660
O322        O  0.46353023  0.84395469  0.20356317    -0.82870
O323        O  0.06012392  0.84047337  0.16859979    -0.77720
O324        O  0.97282775  0.96379555  0.08461075    -0.79500
O325        O  0.03909166  0.83531645  0.98730170    -0.82240
C326        C  0.06908700  0.87115970  0.20072015     0.98530
C327        C  0.43962152  0.87475505  0.20975617     1.05960
O328        O  0.50106735  0.87292192  0.09167114    -1.11220
O329        O  0.44347563  0.84089408  0.99940499    -0.73660
O330        O  0.43390410  0.81312048  0.08830556    -0.77140
O331        O  0.04108190  0.89897124  0.20714691    -0.77830
C332        C  0.42140943  0.82017286  0.03536742     0.97430
O333        O  0.52458969  0.78986582  0.05725400    -0.75790
O334        O  0.45370767  0.92642204  0.01048839    -0.80980
C335        C  0.07326659  0.93522817  0.04174413     1.00050
C336        C  0.45679182  0.95791914  0.04274401     1.05970
O337        O  0.06438000  0.93815985  0.09766904    -0.76630
C338        C  0.04369172  0.80212979  0.01134269     1.04270
Fe339      Fe  0.26596574  0.67587705  0.12973685     1.65780
Fe340      Fe  0.24695999  0.63101531  0.99279716     1.73250
Fe341      Fe  0.23990339  0.57756624  0.11988263     1.54420
O342        O  0.29627065  0.58169284  0.17211959    -0.80360
O343        O  0.19274478  0.59485925  0.98541829    -0.78660
O344        O  0.30909520  0.64608989  0.18495350    -0.82870
O345        O  0.21174200  0.66939312  0.18525998    -0.77720
O346        O  0.27716565  0.54525654  0.05708372    -0.79500
O347        O  0.20525316  0.67911255  0.99695132    -0.82240
C348        C  0.18907936  0.63988884  0.20060131     0.98530
C349        C  0.31919948  0.61016821  0.19309319     1.05960
O350        O  0.25091017  0.62808202  0.08075646    -1.11220
O351        O  0.30115732  0.66707042  0.98622744    -0.73660
O352        O  0.32074983  0.68718440  0.07843578    -0.77140
O353        O  0.19885643  0.60443308  0.18431792    -0.77830
C354        C  0.32794459  0.68368920  0.02261767     0.97430
O355        O  0.22715177  0.71273281  0.07926438    -0.75790
O356        O  0.28802653  0.58328603  0.97849203    -0.80980
C357        C  0.17131668  0.57262016  0.01938036     1.00050
C358        C  0.29287609  0.55111215  0.00515133     1.05970
O359        O  0.18306671  0.56587713  0.07236930    -0.76630
C360        C  0.20575671  0.71017088  0.03037001     1.04270
C361        C  0.36009358  0.60086147  0.22678520    -0.15120
C362        C  0.39486045  0.62562996  0.22736160    -0.30290
H363        H  0.36259485  0.57262440  0.24834811     0.13910
H364        H  0.39215907  0.65315420  0.20380897     0.14480
C365        C  0.14825983  0.64750641  0.23646202    -0.15120
C366        C  0.11283687  0.62372316  0.22953665    -0.30290
H367        H  0.14595646  0.67424399  0.26467683     0.13910
H368        H  0.11546898  0.59794956  0.19925094     0.14480
C369        C  0.37133848  0.69541657  0.99998272    -0.15120
C370        C  0.38011764  0.69411961  0.44653661    -0.30290
H371        H  0.39793982  0.69789004  0.03266657     0.13910
H372        H  0.35414414  0.69353730  0.41287931     0.14480
C373        C  0.12911857  0.55656425  0.99786402    -0.15120
C374        C  0.11940534  0.55552561  0.44026084    -0.30290
H375        H  0.10331440  0.55298602  0.03113215     0.13910
H376        H  0.14596645  0.55680630  0.40758893     0.14480
C377        C  0.43603274  0.99663406  0.50977422    -0.15120
C378        C  0.43866053  0.50186942  0.46001478    -0.30290
H379        H  0.93477568  0.02281562  0.53878717     0.13910
H380        H  0.43775319  0.47603554  0.42971553     0.14480
C381        C  0.06153397  0.73149955  0.48782869    -0.15120
C382        C  0.06039562  0.76835486  0.97372775    -0.30290
H383        H  0.06247222  0.72727771  0.53584527     0.13910
H384        H  0.06185691  0.77283856  0.41940185     0.14480
C385        C  0.36280036  0.89594303  0.23968349    -0.15120
C386        C  0.39726005  0.87059176  0.24251235    -0.30290
H387        H  0.36642633  0.92362877  0.21693572     0.13910
H388        H  0.39307440  0.84346918  0.26664684     0.14480
C389        C  0.11201864  0.87616762  0.23265874    -0.15120
C390        C  0.14777183  0.85251491  0.22515085    -0.30290
H391        H  0.11457453  0.90180859  0.26317613     0.13910
H392        H  0.14559781  0.82591939  0.19664424     0.14480
C393        C  0.37781799  0.80659658  0.01539644    -0.15120
C394        C  0.37130271  0.80334223  0.46104786    -0.30290
H395        H  0.35139045  0.80679776  0.04840003     0.13910
H396        H  0.39770467  0.80085616  0.42803928     0.14480
C397        C  0.11776661  0.94506784  0.02103418    -0.15120
C398        C  0.12847755  0.94319984  0.46258021    -0.30290
H399        H  0.14451839  0.94366679  0.05342579     0.13910
H400        H  0.10289908  0.94690350  0.42898449     0.14480
C401        C  0.31223510  0.98116891  0.49153961    -0.15120
C402        C  0.30891350  0.51770675  0.46924229    -0.30290
H403        H  0.31327431  0.97781751  0.53977845     0.13910
H404        H  0.30964800  0.52166736  0.42113913     0.14480
C405        C  0.18556444  0.74670241  0.00864575    -0.15120
C406        C  0.18525267  0.75299906  0.45403473    -0.30290
H407        H  0.18659369  0.77231701  0.54443630     0.13910
H408        H  0.18546196  0.72757980  0.42286855     0.14480
Fe409      Fe  0.23672196  0.92217886  0.83845581     1.65780
Fe410      Fe  0.24430684  0.86827088  0.96475155     1.73250
Fe411      Fe  0.26351772  0.82383692  0.82762571     1.54420
O412        O  0.20930518  0.83034664  0.77245907    -0.80360
O413        O  0.29813908  0.83149163  0.97062691    -0.78660
O414        O  0.19626528  0.89539517  0.77316659    -0.82870
O415        O  0.29374883  0.91811243  0.78730742    -0.77720
O416        O  0.22539550  0.78683841  0.87835237    -0.79500
O417        O  0.28573226  0.91543069  0.97924639    -0.82240
C418        C  0.31680702  0.88958871  0.76609858     0.98530
C419        C  0.18670579  0.85993442  0.75681845     1.05960
O420        O  0.24805990  0.87150253  0.87696498    -1.11220
O421        O  0.19052649  0.90517422  0.97292018    -0.73660
O422        O  0.17948802  0.93359140  0.88574712    -0.77140
O423        O  0.30624941  0.85368365  0.77256274    -0.77830
C424        C  0.16854201  0.92730706  0.93922567     0.97430
O425        O  0.27324816  0.95442703  0.90211670    -0.75790
O426        O  0.20234740  0.82067173  0.96008870    -0.80980
C427        C  0.32535170  0.81551848  0.93400610     1.00050
C428        C  0.20379344  0.78941693  0.92711133     1.05970
O429        O  0.31850027  0.81262579  0.87817036    -0.76630
C430        C  0.28961694  0.94804368  0.95356977     1.04270
Fe431      Fe  0.00581271  0.57491603  0.82161232     1.65780
Fe432      Fe  0.99576039  0.61841999  0.95966706     1.73250
Fe433      Fe  0.49921410  0.66933445  0.83096720     1.54420
O434        O  0.06140398  0.66055304  0.79757360    -0.80360
O435        O  0.44561181  0.65629067  0.96016562    -0.78660
O436        O  0.04117149  0.60329462  0.75635823    -0.82870
O437        O  0.44726307  0.58391467  0.78021872    -0.77720
O438        O  0.52947617  0.70150289  0.89912717    -0.79500
O439        O  0.45109098  0.57066423  0.95456116    -0.82240
C440        C  0.43864848  0.61638863  0.75525614     0.98530
C441        C  0.06976242  0.63022351  0.76418560     1.05960
O442        O  0.99988189  0.62222227  0.87327302    -1.11220
O443        O  0.04801508  0.57923206  0.95984359    -0.73660
O444        O  0.06484952  0.56237803  0.86404318    -0.77140
O445        O  0.46612295  0.64481410  0.75679926    -0.77830
C446        C  0.07419693  0.56486434  0.91982324     0.97430
O447        O  0.97321466  0.53728674  0.87651604    -0.75790
O448        O  0.03970386  0.66412361  0.97819572    -0.80980
C449        C  0.42471547  0.67690297  0.92257333     1.00050
C450        C  0.04394808  0.69765176  0.95520547     1.05970
O451        O  0.43813122  0.68222700  0.86929474    -0.76630
C452        C  0.45387660  0.53791790  0.92542881     1.04270
Fe453      Fe  0.49863940  0.82806699  0.63088764     1.65780
Fe454      Fe  0.99527391  0.88126472  0.49900899     1.73250
Fe455      Fe  0.00387795  0.92504780  0.63711287     1.54420
O456        O  0.44436459  0.91286694  0.68053895    -0.80360
O457        O  0.04728330  0.92035155  0.49950539    -0.78660
O458        O  0.46429582  0.85228807  0.70458835    -0.82870
O459        O  0.05953527  0.83929725  0.66271791    -0.77720
O460        O  0.97155534  0.96258119  0.58142473    -0.79500
O461        O  0.03974188  0.83550523  0.48157981    -0.82240
C462        C  0.06754577  0.86966762  0.69602191     0.98530
C463        C  0.43618925  0.88043903  0.70548624     1.05960
O464        O  0.50027679  0.87852329  0.59149181    -1.11220
O465        O  0.44605277  0.84183704  0.50081489    -0.73660
O466        O  0.43823318  0.81536911  0.59137518    -0.77140
O467        O  0.03888039  0.89681775  0.70313354    -0.77830
C468        C  0.42500465  0.82118799  0.53814821     0.97430
O469        O  0.52975898  0.79548097  0.56327034    -0.75790
O470        O  0.45235059  0.92742921  0.50543161    -0.80980
C471        C  0.07302092  0.93476153  0.53985720     1.00050
C472        C  0.45318933  0.95987833  0.53551620     1.05970
O473        O  0.06319863  0.93732070  0.59548732    -0.76630
C474        C  0.04425350  0.80214033  0.50506606     1.04270
Fe475      Fe  0.26566969  0.67522916  0.63372665     1.65780
Fe476      Fe  0.24660930  0.63146651  0.49608772     1.73250
Fe477      Fe  0.23887350  0.57717782  0.62191859     1.54420
O478        O  0.29614916  0.58028776  0.67254595    -0.80360
O479        O  0.19288185  0.59470231  0.48766362    -0.78660
O480        O  0.30887273  0.64458222  0.68788340    -0.82870
O481        O  0.21174321  0.66874853  0.68921646    -0.77720
O482        O  0.27461392  0.54480981  0.55732705    -0.79500
O483        O  0.20439230  0.67916410  0.50141707    -0.82240
C484        C  0.18924649  0.63926537  0.70470706     0.98530
C485        C  0.31932817  0.60848841  0.69398267     1.05960
O486        O  0.25034454  0.62789962  0.58386771    -1.11220
O487        O  0.30032532  0.66824755  0.49038336    -0.73660
O488        O  0.32022465  0.68695168  0.58302592    -0.77140
O489        O  0.19888453  0.60382714  0.68806286    -0.77830
C490        C  0.32709604  0.68450914  0.52717788     0.97430
O491        O  0.22694875  0.71253647  0.58372364    -0.75790
O492        O  0.28819890  0.58414395  0.48105689    -0.80980
C493        C  0.17059750  0.57309919  0.52161237     1.00050
C494        C  0.29112233  0.55115977  0.50598486     1.05970
O495        O  0.18137063  0.56694822  0.57519343    -0.76630
C496        C  0.20533515  0.71018258  0.53494048     1.04270
C497        C  0.36103787  0.59871799  0.72554247    -0.15120
C498        C  0.39627738  0.62289246  0.72351766    -0.30290
H499        H  0.36368736  0.57062509  0.74747925     0.13910
H500        H  0.39327617  0.65024730  0.69958742     0.14480
C501        C  0.14871764  0.64706133  0.74099006    -0.15120
C502        C  0.11249672  0.62458793  0.73228680    -0.30290
H503        H  0.14719600  0.67320818  0.77056808     0.13910
H504        H  0.11444139  0.59948441  0.70061502     0.14480
C505        C  0.37014991  0.69717876  0.50505915    -0.15120
C506        C  0.38112262  0.69202342  0.94127839    -0.30290
H507        H  0.39663453  0.69977421  0.53791744     0.13910
H508        H  0.35498436  0.69154458  0.90786162     0.14480
C509        C  0.12861417  0.55711154  0.49919147    -0.15120
C510        C  0.11918739  0.55525665  0.93918532    -0.30290
H511        H  0.10239213  0.55368325  0.53190526     0.13910
H512        H  0.14537625  0.55670421  0.90598874     0.14480
C513        C  0.44154447  0.99636846  0.01949002    -0.15120
C514        C  0.43646136  0.50121772  0.95056275    -0.30290
H515        H  0.93663207  0.02403969  0.04045471     0.13910
H516        H  0.43792910  0.47488239  0.92128949     0.14480
C517        C  0.06004769  0.73113421  0.99368025    -0.15120
C518        C  0.06131985  0.76859277  0.46741912    -0.30290
H519        H  0.06015687  0.72664197  0.04163627     0.13910
H520        H  0.06157886  0.77277735  0.92577518     0.14480
C521        C  0.35857860  0.89869259  0.73455054    -0.15120
C522        C  0.39360682  0.87396301  0.73648877    -0.30290
H523        H  0.36155496  0.92686415  0.71296427     0.13910
H524        H  0.39041454  0.84653490  0.76012168     0.14480
C525        C  0.11002545  0.87510713  0.72849912    -0.15120
C526        C  0.14624602  0.85225664  0.72048631    -0.30290
H527        H  0.11181641  0.90037403  0.75985494     0.13910
H528        H  0.14483654  0.82597882  0.69119319     0.14480
C529        C  0.38136579  0.80658197  0.51957008    -0.15120
C530        C  0.36872398  0.80385163  0.95659889    -0.30290
H531        H  0.35538041  0.80702426  0.55321617     0.13910
H532        H  0.39558993  0.80165327  0.92424968     0.14480
C533        C  0.11808263  0.94435648  0.52112412    -0.15120
C534        C  0.12670113  0.94374239  0.96198491    -0.30290
H535        H  0.14403518  0.94279147  0.55466299     0.13910
H536        H  0.10030026  0.94733250  0.92953342     0.14480
C537        C  0.30869705  0.98109614  0.98959657    -0.15120
C538        C  0.31226434  0.51775369  0.96989821    -0.30290
H539        H  0.31002523  0.97717446  0.03769201     0.13910
H540        H  0.31330010  0.52113271  0.92166974     0.14480
C541        C  0.18557498  0.74690961  0.51328714    -0.15120
C542        C  0.18479114  0.75270642  0.94939505    -0.30290
H543        H  0.18628135  0.77216383  0.03971332     0.13910
H544        H  0.18553592  0.72725585  0.91829989     0.14480
Fe545      Fe  0.73917440  0.42186693  0.34073144     1.65780
Fe546      Fe  0.74719346  0.36821229  0.46770311     1.73250
Fe547      Fe  0.76554402  0.32320159  0.33051148     1.54420
O548        O  0.71175520  0.33050561  0.27435174    -0.80360
O549        O  0.80202667  0.33289904  0.47396567    -0.78660
O550        O  0.69751282  0.39532269  0.27731200    -0.82870
O551        O  0.79498499  0.41724572  0.28747183    -0.77720
O552        O  0.72603276  0.28670623  0.37980596    -0.79500
O553        O  0.78702501  0.41666508  0.48198442    -0.82240
C554        C  0.81852807  0.38869706  0.26752534     0.98530
C555        C  0.68838351  0.36000168  0.26015402     1.05960
O556        O  0.75065642  0.37115068  0.37972989    -1.11220
O557        O  0.69234273  0.40345230  0.47483324    -0.73660
O558        O  0.68277978  0.43412525  0.38919899    -0.77140
O559        O  0.80912204  0.35282580  0.27652029    -0.77830
C560        C  0.67096499  0.42640704  0.44176155     0.97430
O561        O  0.77698314  0.45413772  0.40253003    -0.75790
O562        O  0.70670243  0.31947079  0.46419229    -0.80980
C563        C  0.82781336  0.31469601  0.43778972     1.00050
C564        C  0.70580428  0.28895591  0.42958498     1.05970
O565        O  0.81994814  0.31042468  0.38221051    -0.76630
C566        C  0.79219390  0.44860380  0.45481958     1.04270
Fe567      Fe  0.50772093  0.07121926  0.32007188     1.65780
Fe568      Fe  0.49689685  0.11592840  0.45670910     1.73250
Fe569      Fe  0.99918358  0.17294623  0.33493837     1.54420
O570        O  0.56158911  0.15764624  0.29393921    -0.80360
O571        O  0.94391363  0.15778963  0.46336852    -0.78660
O572        O  0.54306390  0.09940729  0.25416277    -0.82870
O573        O  0.94587956  0.08860356  0.28197429    -0.77720
O574        O  0.03020682  0.20450986  0.40316412    -0.79500
O575        O  0.95088992  0.07209175  0.45700907    -0.82240
C576        C  0.93792250  0.12130855  0.25740274     0.98530
C577        C  0.57072650  0.12729402  0.26106436     1.05960
O578        O  0.50096800  0.11890105  0.37029311    -1.11220
O579        O  0.54843145  0.07588545  0.45839700    -0.73660
O580        O  0.56710786  0.06021549  0.36300124    -0.77140
O581        O  0.96535286  0.14974776  0.26042240    -0.77830
C582        C  0.57577248  0.06270569  0.41899691     0.97430
O583        O  0.47559651  0.03406732  0.37674866    -0.75790
O584        O  0.54194935  0.16077420  0.47304139    -0.80980
C585        C  0.92403070  0.17981423  0.42666367     1.00050
C586        C  0.54475859  0.19443231  0.45020327     1.05970
O587        O  0.93833292  0.18648655  0.37413837    -0.76630
C588        C  0.95246671  0.04004964  0.42586690     1.04270
Fe589      Fe  0.99782806  0.32696732  0.12393436     1.65780
Fe590      Fe  0.49770153  0.38157459  0.00496585     1.73250
Fe591      Fe  0.50490570  0.42628728  0.14241834     1.54420
O592        O  0.94380942  0.41169764  0.17605642    -0.80360
O593        O  0.54974717  0.42099880  0.00563715    -0.78660
O594        O  0.96304136  0.35031534  0.19766408    -0.82870
O595        O  0.56050026  0.34013305  0.16845725    -0.77720
O596        O  0.47269070  0.46342715  0.08560071    -0.79500
O597        O  0.54255678  0.33606741  0.98905604    -0.82240
C598        C  0.56875621  0.37061757  0.20137305     0.98530
C599        C  0.93578671  0.37909719  0.20072369     1.05960
O600        O  0.99863092  0.37768198  0.08524836    -1.11220
O601        O  0.94363904  0.34197069  0.99422158    -0.73660
O602        O  0.93752082  0.31339257  0.08341993    -0.77140
O603        O  0.54018516  0.39796946  0.20855591    -0.77830
C604        C  0.92357312  0.32001923  0.03064879     0.97430
O605        O  0.02993013  0.29536923  0.05663657    -0.75790
O606        O  0.95016365  0.42770061  0.00061129    -0.80980
C607        C  0.57458885  0.43646046  0.04628406     1.00050
C608        C  0.95142910  0.45980641  0.03160210     1.05970
O609        O  0.56423646  0.43901773  0.10168358    -0.76630
C610        C  0.54514108  0.30232361  0.01171884     1.04270
Fe611      Fe  0.76559312  0.17759719  0.12943430     1.65780
Fe612      Fe  0.74625224  0.13290960  0.99205391     1.73250
Fe613      Fe  0.74134744  0.07875066  0.11910243     1.54420
O614        O  0.79705940  0.08383028  0.17210792    -0.80360
O615        O  0.69068923  0.09843665  0.98658500    -0.78660
O616        O  0.81037423  0.14823376  0.18258140    -0.82870
O617        O  0.71237503  0.16970553  0.18643380    -0.77720
O618        O  0.77971472  0.04698427  0.05721382    -0.79500
O619        O  0.70670246  0.18277081  0.99579890    -0.82240
C620        C  0.68957345  0.13995762  0.20044599     0.98530
C621        C  0.82032513  0.11243383  0.19167612     1.05960
O622        O  0.75102588  0.12970940  0.08003031    -1.11220
O623        O  0.80179800  0.16707805  0.98529840    -0.73660
O624        O  0.81917633  0.19064592  0.07675514    -0.77140
O625        O  0.69923568  0.10478496  0.18271330    -0.77830
C626        C  0.82729563  0.18566834  0.02131811     0.97430
O627        O  0.72525870  0.21436598  0.08127632    -0.75790
O628        O  0.78503388  0.08364116  0.97617446    -0.80980
C629        C  0.67159949  0.07400974  0.01965898     1.00050
C630        C  0.79244972  0.05215690  0.00369984     1.05970
O631        O  0.68542479  0.06548946  0.07098946    -0.76630
C632        C  0.70561062  0.21296829  0.03107726     1.04270
C633        C  0.86142967  0.10331684  0.22476585    -0.15120
C634        C  0.89631758  0.12787815  0.22420533    -0.30290
H635        H  0.86394853  0.07528460  0.24691336     0.13910
H636        H  0.89362690  0.15528217  0.20034727     0.14480
C637        C  0.64864616  0.14692019  0.23635860    -0.15120
C638        C  0.61348221  0.12286811  0.22881534    -0.30290
H639        H  0.64607322  0.17332989  0.26524694     0.13910
H640        H  0.61640257  0.09740638  0.19796988     0.14480
C641        C  0.87043404  0.19819635  0.99899046    -0.15120
C642        C  0.88049137  0.19503395  0.44543694    -0.30290
H643        H  0.89684715  0.20122642  0.03187575     0.13910
H644        H  0.85438668  0.19463261  0.41197260     0.14480
C645        C  0.62977472  0.05693037  0.99929349    -0.15120
C646        C  0.62097112  0.05455951  0.43945836    -0.30290
H647        H  0.60444199  0.05299436  0.03311351     0.13910
H648        H  0.64745552  0.05664692  0.40681679     0.14480
C649        C  0.93546571  0.49793129  0.51043745    -0.15120
C650        C  0.93471317  0.00286655  0.44906897    -0.30290
H651        H  0.44485333  0.52203102  0.54953199     0.13910
H652        H  0.93601450  0.97714439  0.41852777     0.14480
C653        C  0.56085667  0.22788531  0.48825490    -0.15120
C654        C  0.56103119  0.26860774  0.97337599    -0.30290
H655        H  0.56205144  0.22320597  0.53614716     0.13910
H656        H  0.55985086  0.26992060  0.42080946     0.14480
C657        C  0.85942381  0.39782652  0.23415778    -0.15120
C658        C  0.89430333  0.37296757  0.23420241    -0.30290
H659        H  0.86177504  0.42591220  0.21218329     0.13910
H660        H  0.89170895  0.34553058  0.25795201     0.14480
C661        C  0.61151670  0.37577186  0.23322915    -0.15120
C662        C  0.64743541  0.35250032  0.22475616    -0.30290
H663        H  0.61380196  0.40111153  0.26437206     0.13910
H664        H  0.64551568  0.32620494  0.19556141     0.14480
C665        C  0.88008934  0.30497857  0.01155713    -0.15120
C666        C  0.87088887  0.30190959  0.46044506    -0.30290
H667        H  0.85452193  0.30385265  0.04565375     0.13910
H668        H  0.89761922  0.29934530  0.42793437     0.14480
C669        C  0.61936843  0.44766444  0.02857309    -0.15120
C670        C  0.62883224  0.44210687  0.46422379    -0.30290
H671        H  0.64514854  0.44599837  0.06234714     0.13910
H672        H  0.60234846  0.44530796  0.43178887     0.14480
C673        C  0.81142695  0.48213530  0.48972139    -0.15120
C674        C  0.81947823  0.01878532  0.48377616    -0.30290
H675        H  0.81292392  0.47883861  0.53794210     0.13910
H676        H  0.82397180  0.02193318  0.43584908     0.14480
C677        C  0.68567977  0.25011892  0.01069504    -0.15120
C678        C  0.68539538  0.25247043  0.45066618    -0.30290
H679        H  0.68388632  0.27143674  0.54112022     0.13910
H680        H  0.68649183  0.22715606  0.41932714     0.14480
Fe681      Fe  0.74395954  0.43122637  0.85114494     1.65780
Fe682      Fe  0.74713851  0.37206297  0.97258390     1.73250
Fe683      Fe  0.76011662  0.33221341  0.83120986     1.54420
O684        O  0.70254493  0.34519713  0.78352974    -0.80360
O685        O  0.80032578  0.33402482  0.97280981    -0.78660
O686        O  0.70457320  0.41097368  0.78083707    -0.82870
O687        O  0.80158049  0.42562233  0.80230568    -0.77720
O688        O  0.72253918  0.29421112  0.88068014    -0.79500
O689        O  0.79003664  0.41770376  0.99199429    -0.82240
C690        C  0.81920793  0.39652497  0.77417932     0.98530
C691        C  0.68643077  0.37806589  0.76744098     1.05960
O692        O  0.75049929  0.37850686  0.88531206    -1.11220
O693        O  0.69389694  0.40974049  0.98225307    -0.73660
O694        O  0.68627872  0.44258547  0.89770397    -0.77140
O695        O  0.80289392  0.36187595  0.77452872    -0.77830
C696        C  0.67325291  0.43356177  0.94939804     0.97430
O697        O  0.78078115  0.45895189  0.91739498    -0.75790
O698        O  0.70387424  0.32523920  0.96639386    -0.80980
C699        C  0.82540738  0.31776671  0.93346841     1.00050
C700        C  0.70328795  0.29511358  0.93110071     1.05970
O701        O  0.81636638  0.31633645  0.87776579    -0.76630
C702        C  0.79628630  0.45063101  0.96825338     1.04270
Fe703      Fe  0.50468197  0.07354598  0.82587806     1.65780
Fe704      Fe  0.49635481  0.11868383  0.96293868     1.73250
Fe705      Fe  0.99922496  0.17191710  0.83111086     1.54420
O706        O  0.55987413  0.15944269  0.79869687    -0.80360
O707        O  0.94432400  0.15845678  0.95997708    -0.78660
O708        O  0.54007890  0.10136447  0.75942257    -0.82870
O709        O  0.94606932  0.08688390  0.78153312    -0.77720
O710        O  0.03014984  0.20437823  0.89845324    -0.79500
O711        O  0.95119387  0.07263687  0.95643161    -0.82240
C712        C  0.93775872  0.11935102  0.75645406     0.98530
C713        C  0.56820093  0.12897604  0.76570262     1.05960
O714        O  0.49937104  0.12140391  0.87630890    -1.11220
O715        O  0.54886204  0.07994356  0.96291566    -0.73660
O716        O  0.56404664  0.06138069  0.86722208    -0.77140
O717        O  0.96566110  0.14742083  0.75735009    -0.77830
C718        C  0.57424078  0.06474264  0.92260132     0.97430
O719        O  0.47285339  0.03638415  0.88331818    -0.75790
O720        O  0.54022551  0.16459578  0.97893127    -0.80980
C721        C  0.92417562  0.17964028  0.92238389     1.00050
C722        C  0.54400849  0.19792712  0.95537604     1.05970
O723        O  0.93834669  0.18553277  0.86961262    -0.76630
C724        C  0.95329752  0.04008634  0.92659643     1.04270
Fe725      Fe  0.99801731  0.32826408  0.63059819     1.65780
Fe726      Fe  0.49667829  0.37846628  0.50507628     1.73250
Fe727      Fe  0.51081156  0.41896603  0.64456103     1.54420
O728        O  0.94530570  0.41416470  0.68139384    -0.80360
O729        O  0.54977689  0.41611541  0.50455502    -0.78660
O730        O  0.96298808  0.35256377  0.70383025    -0.82870
O731        O  0.55662580  0.32603689  0.66606728    -0.77720
O732        O  0.47690059  0.45872755  0.59242527    -0.79500
O733        O  0.53959452  0.33203185  0.48597284    -0.82240
C734        C  0.57179691  0.35481126  0.69741096     0.98530
C735        C  0.93620363  0.38178293  0.70613141     1.05960
O736        O  0.99911049  0.37864567  0.59063283    -1.11220
O737        O  0.94325467  0.34239255  0.50136146    -0.73660
O738        O  0.93760553  0.31440948  0.59101404    -0.77140
O739        O  0.55074400  0.38752750  0.70378589    -0.77830
C740        C  0.92351230  0.32059233  0.53825174     0.97430
O741        O  0.02981361  0.29579825  0.56354082    -0.75790
O742        O  0.95017366  0.42818814  0.50533037    -0.80980
C743        C  0.57624717  0.43057122  0.54377198     1.00050
C744        C  0.95229682  0.46068722  0.53525886     1.05970
O745        O  0.56831945  0.43168868  0.59977598    -0.76630
C746        C  0.54154243  0.29779651  0.50710316     1.04270
Fe747      Fe  0.76432360  0.17708598  0.63308317     1.65780
Fe748      Fe  0.74808752  0.13058692  0.49638202     1.73250
Fe749      Fe  0.73889810  0.07847394  0.62475609     1.54420
O750        O  0.79350988  0.08395613  0.68016011    -0.80360
O751        O  0.69367463  0.09485825  0.48787968    -0.78660
O752        O  0.80884500  0.14816944  0.68711946    -0.82870
O753        O  0.71056021  0.16984436  0.68973025    -0.77720
O754        O  0.77924165  0.04636527  0.56621311    -0.79500
O755        O  0.70689686  0.17918693  0.49776404    -0.82240
C756        C  0.68673704  0.14061721  0.70331200     0.98530
C757        C  0.81782681  0.11239673  0.69786974     1.05960
O758        O  0.75029698  0.12872512  0.58466715    -1.11220
O759        O  0.80241825  0.16613135  0.49023813    -0.73660
O760        O  0.81870729  0.19008180  0.58156856    -0.77140
O761        O  0.69554860  0.10530378  0.68564322    -0.77830
C762        C  0.82739628  0.18507734  0.52633233     0.97430
O763        O  0.72404954  0.21255405  0.58259924    -0.75790
O764        O  0.78943382  0.08255456  0.48549953    -0.80980
C765        C  0.67225749  0.07211613  0.52100578     1.00050
C766        C  0.79597325  0.05164649  0.51483695     1.05970
O767        O  0.68373924  0.06504390  0.57404449    -0.76630
C768        C  0.70482429  0.20985672  0.53207375     1.04270
C769        C  0.85933880  0.10306730  0.73005939    -0.15120
C770        C  0.89534212  0.12606491  0.72509258    -0.30290
H771        H  0.86129356  0.07592386  0.75459853     0.13910
H772        H  0.89303688  0.15253978  0.69894929     0.14480
C773        C  0.64582172  0.14829506  0.73897795    -0.15120
C774        C  0.61060365  0.12414005  0.73272242    -0.30290
H775        H  0.64350287  0.17503194  0.76719040     0.13910
H776        H  0.61323529  0.09828959  0.70259944     0.14480
C777        C  0.87055759  0.19785986  0.50418179    -0.15120
C778        C  0.88049409  0.19476962  0.94041239    -0.30290
H779        H  0.89705062  0.20043721  0.53700739     0.13910
H780        H  0.85450277  0.19385847  0.90678513     0.14480
C781        C  0.63032949  0.05587548  0.49839752    -0.15120
C782        C  0.61936458  0.05523727  0.94090415    -0.30290
H783        H  0.60427485  0.05172113  0.53110923     0.13910
H784        H  0.64519645  0.05691737  0.90722767     0.14480
C785        C  0.93405328  0.49706500  0.00778947    -0.15120
C786        C  0.93597676  0.00307731  0.95120438    -0.30290
H787        H  0.43663999  0.52314617  0.03943588     0.13910
H788        H  0.93716886  0.97700199  0.92136888     0.14480
C789        C  0.56072409  0.23142016  0.99322531    -0.15120
C790        C  0.55927632  0.26508057  0.46867095    -0.30290
H791        H  0.56158929  0.22694437  0.04117988     0.13910
H792        H  0.56163279  0.27313488  0.92543311     0.14480
C793        C  0.86086381  0.40359311  0.74090708    -0.15120
C794        C  0.89373962  0.37654401  0.73848704    -0.30290
H795        H  0.86591319  0.43245127  0.72215871     0.13910
H796        H  0.88882529  0.34847930  0.75984274     0.14480
C797        C  0.61527620  0.34968491  0.72749394    -0.15120
C798        C  0.64397956  0.37991744  0.73391014    -0.30290
H799        H  0.62461114  0.32044333  0.74187945     0.13910
H800        H  0.63436870  0.40861343  0.71747347     0.14480
C801        C  0.88039930  0.30496126  0.51927338    -0.15120
C802        C  0.86915784  0.30416726  0.95302656    -0.30290
H803        H  0.85411524  0.30536025  0.55248374     0.13910
H804        H  0.89511799  0.30312911  0.91930575     0.14480
C805        C  0.62000268  0.44230082  0.52314061    -0.15120
C806        C  0.63023118  0.44847026  0.97035510    -0.30290
H807        H  0.64690516  0.44128179  0.55537963     0.13910
H808        H  0.60477364  0.45235076  0.93665092     0.14480
C809        C  0.81717804  0.48230698  0.00495291    -0.15120
C810        C  0.81119241  0.01858547  0.96807341    -0.30290
H811        H  0.81570124  0.47878660  0.05312028     0.13910
H812        H  0.81143413  0.02180953  0.91979488     0.14480
C813        C  0.68435367  0.24611478  0.50977389    -0.15120
C814        C  0.68494145  0.25756400  0.95185919    -0.30290
H815        H  0.68606281  0.27490818  0.04300677     0.13910
H816        H  0.68568878  0.23279452  0.91952024     0.14480
Fe817      Fe  0.74402997  0.93126861  0.35136365     1.65780
Fe818      Fe  0.74712083  0.87207708  0.47279113     1.73250
Fe819      Fe  0.76012880  0.83224166  0.33140669     1.54420
O820        O  0.70258772  0.84527106  0.28368316    -0.80360
O821        O  0.80031554  0.83405663  0.47304121    -0.78660
O822        O  0.70459527  0.91105409  0.28109062    -0.82870
O823        O  0.80162435  0.92563807  0.30247806    -0.77720
O824        O  0.72249572  0.79424798  0.38081080    -0.79500
O825        O  0.78999180  0.91773091  0.49226383    -0.82240
C826        C  0.81925934  0.89653385  0.27438180     0.98530
C827        C  0.68646519  0.87814935  0.26764414     1.05960
O828        O  0.75052170  0.87853522  0.38551980    -1.11220
O829        O  0.69386755  0.90973353  0.48241681    -0.73660
O830        O  0.68637459  0.94268387  0.39794636    -0.77140
O831        O  0.80296018  0.86188159  0.27477542    -0.77830
C832        C  0.67328758  0.93361247  0.44958835     0.97430
O833        O  0.78090928  0.95894829  0.41758724    -0.75790
O834        O  0.70387630  0.82523700  0.46657136    -0.80980
C835        C  0.82538234  0.81776354  0.43371514     1.00050
C836        C  0.70325655  0.79513235  0.43123770     1.05970
O837        O  0.81634324  0.81631645  0.37801075    -0.76630
C838        C  0.79634122  0.95063105  0.46848610     1.04270
Fe839      Fe  0.50470112  0.57349768  0.32592937     1.65780
Fe840      Fe  0.49632887  0.61858123  0.46302049     1.73250
Fe841      Fe  0.99923052  0.67194540  0.33120117     1.54420
O842        O  0.55993850  0.65938069  0.29885413    -0.80360
O843        O  0.94425799  0.65841974  0.46000804    -0.78660
O844        O  0.54012431  0.60132893  0.25951256    -0.82870
O845        O  0.94614071  0.58689819  0.28152724    -0.77720
O846        O  0.03012462  0.70439592  0.39858403    -0.79500
O847        O  0.95117480  0.57260755  0.45640447    -0.82240
C848        C  0.93781711  0.61936950  0.25646663     0.98530
C849        C  0.56826105  0.62892463  0.26583624     1.05960
O850        O  0.49938682  0.62133873  0.37639891    -1.11220
O851        O  0.54879688  0.57979833  0.46299853    -0.73660
O852        O  0.56404706  0.56131210  0.36729541    -0.77140
O853        O  0.96569650  0.64745839  0.25740696    -0.77830
C854        C  0.57420689  0.56463714  0.42268838     0.97430
O855        O  0.47284457  0.53632492  0.38332017    -0.75790
O856        O  0.54023400  0.66445706  0.47909604    -0.80980
C857        C  0.92412531  0.67961633  0.42241789     1.00050
C858        C  0.54405096  0.69779728  0.45557556     1.05970
O859        O  0.93832812  0.68553850  0.36967006    -0.76630
C860        C  0.95329874  0.54007052  0.42653713     1.04270
Fe861      Fe  0.99802032  0.82827525  0.13071728     1.65780
Fe862      Fe  0.49676547  0.87854986  0.00525578     1.73250
Fe863      Fe  0.51083265  0.91906330  0.14474745     1.54420
O864        O  0.94533582  0.91417681  0.18154579    -0.80360
O865        O  0.54984764  0.91621335  0.00477758    -0.78660
O866        O  0.96302508  0.85257655  0.20397792    -0.82870
O867        O  0.55666394  0.82614226  0.16627934    -0.77720
O868        O  0.47693474  0.95881771  0.09257209    -0.79500
O869        O  0.53970637  0.83212441  0.98619238    -0.82240
C870        C  0.57182114  0.85491891  0.19762958     0.98530
C871        C  0.93623906  0.88179440  0.20628723     1.05960
O872        O  0.99913087  0.87866405  0.09077778    -1.11220
O873        O  0.94326168  0.84243272  0.00149831    -0.73660
O874        O  0.93759583  0.81445936  0.09115750    -0.77140
O875        O  0.55075936  0.88763225  0.20399757    -0.77830
C876        C  0.92350717  0.82064266  0.03839435     0.97430
O877        O  0.02977408  0.79580848  0.06361898    -0.75790
O878        O  0.95020011  0.92823041  0.00551355    -0.80980
C879        C  0.57629837  0.93068252  0.04400791     1.00050
C880        C  0.95235974  0.96073261  0.03542732     1.05970
O881        O  0.56835383  0.93180042  0.10000670    -0.76630
C882        C  0.54164877  0.79788856  0.00732297     1.04270
Fe883      Fe  0.76433521  0.67705056  0.13314601     1.65780
Fe884      Fe  0.74792276  0.63059527  0.99646360     1.73250
Fe885      Fe  0.73892759  0.57843560  0.12482637     1.54420
O886        O  0.79359590  0.58391374  0.18012116    -0.80360
O887        O  0.69351088  0.59485876  0.98809069    -0.78660
O888        O  0.80889064  0.64813071  0.18712735    -0.82870
O889        O  0.71060580  0.66980210  0.18985288    -0.77720
O890        O  0.77921495  0.54635319  0.06616824    -0.79500
O891        O  0.70672170  0.67919245  0.99796903    -0.82240
C892        C  0.68680853  0.64056452  0.20347040     0.98530
C893        C  0.81790142  0.61235864  0.19783832     1.05960
O894        O  0.75025600  0.62870171  0.08473870    -1.11220
O895        O  0.80224592  0.66614777  0.99020390    -0.73660
O896        O  0.81867873  0.69002005  0.08153368    -0.77140
O897        O  0.69563358  0.60525044  0.18581035    -0.77830
C898        C  0.82729254  0.68504529  0.02626853     0.97430
O899        O  0.72404133  0.71254883  0.08274381    -0.75790
O900        O  0.78925864  0.58256900  0.98544560    -0.80980
C901        C  0.67216138  0.57208247  0.02124148     1.00050
C902        C  0.79585935  0.55165434  0.01474415     1.05970
O903        O  0.68371779  0.56499073  0.07424089    -0.76630
C904        C  0.70473597  0.70986754  0.03227575     1.04270
C905        C  0.85942494  0.60303740  0.23000524    -0.15120
C906        C  0.89540569  0.62606767  0.22508496    -0.30290
H907        H  0.86140215  0.57588051  0.25450865     0.13910
H908        H  0.89307992  0.65255792  0.19897948     0.14480
C909        C  0.64589886  0.64823131  0.23915600    -0.15120
C910        C  0.61067390  0.62408509  0.23287626    -0.30290
H911        H  0.64358202  0.67496243  0.26738142     0.13910
H912        H  0.61330284  0.59824401  0.20273397     0.14480
C913        C  0.87044538  0.69780365  0.00404630    -0.15120
C914        C  0.88042906  0.69472912  0.44042470    -0.30290
H915        H  0.89695569  0.70040508  0.03684303     0.13910
H916        H  0.85444390  0.69380628  0.40678934     0.14480
C917        C  0.63022651  0.55582158  0.99870832    -0.15120
C918        C  0.61932633  0.55514366  0.44101871    -0.30290
H919        H  0.60417866  0.55171775  0.03144751     0.13910
H920        H  0.64516586  0.55681614  0.40735152     0.14480
C921        C  0.93409203  0.99710203  0.50820826    -0.15120
C922        C  0.93594473  0.50305111  0.45106519    -0.30290
H923        H  0.43662030  0.02298073  0.53906628     0.13910
H924        H  0.93718078  0.47698853  0.42120633     0.14480
C925        C  0.56076824  0.73126899  0.49347052    -0.15120
C926        C  0.55940412  0.76517267  0.96890564    -0.30290
H927        H  0.56156590  0.72678880  0.54142594     0.13910
H928        H  0.56182588  0.77298445  0.42568750     0.14480
C929        C  0.86090757  0.90360065  0.24109279    -0.15120
C930        C  0.89378330  0.87655291  0.23865943    -0.30290
H931        H  0.86595108  0.93245784  0.22233833     0.13910
H932        H  0.88887617  0.84848836  0.26001851     0.14480
C933        C  0.61529507  0.84979274  0.22772519    -0.15120
C934        C  0.64401377  0.88001447  0.23411596    -0.30290
H935        H  0.62461874  0.82055266  0.24212919     0.13910
H936        H  0.63441433  0.90871059  0.21766877     0.14480
C937        C  0.88038695  0.80502030  0.01943071    -0.15120
C938        C  0.86911777  0.80414208  0.45329539    -0.30290
H939        H  0.85411169  0.80541628  0.05265390     0.13910
H940        H  0.89508796  0.80309371  0.41958894     0.14480
C941        C  0.62005243  0.94242419  0.02339320    -0.15120
C942        C  0.63026394  0.94853290  0.47050370    -0.30290
H943        H  0.64695574  0.94138224  0.05562815     0.13910
H944        H  0.60482199  0.95241203  0.43677746     0.14480
C945        C  0.81726838  0.98229189  0.50517682    -0.15120
C946        C  0.81108984  0.51860590  0.46803913    -0.30290
H947        H  0.81574294  0.97879549  0.55334677     0.13910
H948        H  0.81133807  0.52185018  0.41976488     0.14480
C949        C  0.68428026  0.74614809  0.01002903    -0.15120
C950        C  0.68488361  0.75757964  0.45195099    -0.30290
H951        H  0.68596854  0.77489240  0.54310840     0.13910
H952        H  0.68563726  0.73281997  0.41959469     0.14480
Fe953      Fe  0.73913426  0.92187059  0.84090982     1.65780
Fe954      Fe  0.74716540  0.86824086  0.96790868     1.73250
Fe955      Fe  0.76546953  0.82320068  0.83073029     1.54420
O956        O  0.71166799  0.83050577  0.77459391    -0.80360
O957        O  0.80197846  0.83290079  0.97416291    -0.78660
O958        O  0.69743492  0.89532531  0.77753523    -0.82870
O959        O  0.79491892  0.91722063  0.78761663    -0.77720
O960        O  0.72595973  0.78672967  0.88006825    -0.79500
O961        O  0.78703992  0.91667251  0.98213233    -0.82240
C962        C  0.81845520  0.88866477  0.76768650     0.98530
C963        C  0.68829854  0.86000275  0.76039160     1.05960
O964        O  0.75060529  0.87116105  0.87993065    -1.11220
O965        O  0.69234583  0.90352093  0.97506001    -0.73660
O966        O  0.68277247  0.93417336  0.88941082    -0.77140
O967        O  0.80904308  0.85279809  0.77670196    -0.77830
C968        C  0.67097792  0.92648523  0.94199161     0.97430
O969        O  0.77699002  0.95413004  0.90266119    -0.75790
O970        O  0.70663705  0.81951830  0.96443876    -0.80980
C971        C  0.82776772  0.81471091  0.93797599     1.00050
C972        C  0.70572782  0.78899627  0.92984429     1.05970
O973        O  0.81988993  0.81043486  0.88240174    -0.76630
C974        C  0.79222577  0.94859825  0.95493801     1.04270
Fe975      Fe  0.50764859  0.57130868  0.82040413     1.65780
Fe976      Fe  0.49690404  0.61607328  0.95702647     1.73250
Fe977      Fe  0.99910724  0.67303422  0.83482559     1.54420
O978        O  0.56161829  0.65767997  0.79417370    -0.80360
O979        O  0.94381770  0.65776433  0.96319183    -0.78660
O980        O  0.54305897  0.59942349  0.75448223    -0.82870
O981        O  0.94592835  0.58864166  0.78177746    -0.77720
O982        O  0.03007787  0.70458631  0.90311693    -0.79500
O983        O  0.95085392  0.57208322  0.95666787    -0.82240
C984        C  0.93792326  0.62135350  0.75724806     0.98530
C985        C  0.57073249  0.62730703  0.76133025     1.05960
O986        O  0.50096638  0.61901486  0.87059876    -1.11220
O987        O  0.54837715  0.57597155  0.95872985    -0.73660
O988        O  0.56700210  0.56022195  0.86334196    -0.77140
O989        O  0.96532217  0.64981894  0.76027749    -0.77830
C990        C  0.57567487  0.56271256  0.91933224     0.97430
O991        O  0.47544345  0.53422686  0.87709177    -0.75790
O992        O  0.54202025  0.66087560  0.97331551    -0.80980
C993        C  0.92391326  0.67978580  0.92650487     1.00050
C994        C  0.54486631  0.69452481  0.95045543     1.05970
O995        O  0.93821987  0.68649728  0.87399446    -0.76630
C996        C  0.95253311  0.54004375  0.92552996     1.04270
Fe997      Fe  0.99776865  0.82692247  0.62421308     1.65780
Fe998      Fe  0.49782116  0.88141938  0.50498007     1.73250
Fe999      Fe  0.50485526  0.92623844  0.64238060     1.54420
O1000       O  0.94378776  0.91167186  0.67636167    -0.80360
O1001       O  0.54983955  0.92087321  0.50568535    -0.78660
O1002       O  0.96298877  0.85027438  0.69794894    -0.82870
O1003       O  0.56047041  0.84011220  0.66861903    -0.77720
O1004       O  0.47265106  0.96331237  0.58544189    -0.79500
O1005       O  0.54272492  0.83592974  0.48924829    -0.82240
C1006       C  0.56870182  0.87062129  0.70149527     0.98530
C1007       C  0.93574249  0.87906439  0.70100180     1.05960
O1008       O  0.99858201  0.87764781  0.58556495    -1.11220
O1009       O  0.94356329  0.84198160  0.49453565    -0.73660
O1010       O  0.93745632  0.81336497  0.58370471    -0.77140
O1011       O  0.54012692  0.89798066  0.70859789    -0.77830
C1012       C  0.92350604  0.82000902  0.53094157     0.97430
O1013       O  0.02985820  0.79534447  0.55688225    -0.75790
O1014       O  0.95009532  0.92771326  0.50102327    -0.80980
C1015       C  0.57460615  0.93641573  0.54635025     1.00050
C1016       C  0.95144129  0.95982406  0.53199488     1.05970
O1017       O  0.56419859  0.93899945  0.60172589    -0.76630
C1018       C  0.54525235  0.80218977  0.51193055     1.04270
Fe1019     Fe  0.76553792  0.67759036  0.62947598     1.65780
Fe1020     Fe  0.74615755  0.63291167  0.49211112     1.73250
Fe1021     Fe  0.74129344  0.57874799  0.61916179     1.54420
O1022       O  0.79705186  0.58381572  0.67207206    -0.80360
O1023       O  0.69062868  0.59838617  0.48666460    -0.78660
O1024       O  0.81030629  0.64822526  0.68263488    -0.82870
O1025       O  0.71231553  0.66971338  0.68647039    -0.77720
O1026       O  0.77960037  0.54697429  0.55719904    -0.79500
O1027       O  0.70655917  0.68274610  0.49589097    -0.82240
C1028       C  0.68954667  0.63996011  0.70054742     0.98530
C1029       C  0.82029644  0.61242555  0.69166526     1.05960
O1030       O  0.75095563  0.62970608  0.58008325    -1.11220
O1031       O  0.80167606  0.66712296  0.48531778    -0.73660
O1032       O  0.81912826  0.69060807  0.57679237    -0.77140
O1033       O  0.69923069  0.60478334  0.68285134    -0.77830
C1034       C  0.82721410  0.68566506  0.52134077     0.97430
O1035       O  0.72522087  0.71436468  0.58130641    -0.75790
O1036       O  0.78498435  0.58367570  0.47621363    -0.80980
C1037       C  0.67153055  0.57398333  0.51977315     1.00050
C1038       C  0.79236152  0.55216941  0.50370072     1.05970
O1039       O  0.68533636  0.56550674  0.57113012    -0.76630
C1040       C  0.70552083  0.71295785  0.53114523     1.04270
C1041       C  0.86142662  0.60332144  0.72469951    -0.15120
C1042       C  0.89629671  0.62790078  0.72409555    -0.30290
H1043       H  0.86397900  0.57528756  0.74683623     0.13910
H1044       H  0.89357019  0.65530623  0.70024755     0.14480
C1045       C  0.64863677  0.64692438  0.73650276    -0.15120
C1046       C  0.61347793  0.62285465  0.72905152    -0.30290
H1047       H  0.64606585  0.67335772  0.76534076     0.13910
H1048       H  0.61639070  0.59736788  0.69825331     0.14480
C1049       C  0.87036028  0.69817043  0.49900041    -0.15120
C1050       C  0.88035385  0.69495753  0.94529272    -0.30290
H1051       H  0.89677215  0.70120617  0.53188679     0.13910
H1052       H  0.85423664  0.69452364  0.91184618     0.14480
C1053       C  0.62972107  0.55687528  0.49941149    -0.15120
C1054       C  0.62085098  0.55447538  0.93977803    -0.30290
H1055       H  0.60438357  0.55294821  0.53322796     0.13910
H1056       H  0.64733217  0.55650689  0.90711986     0.14480
C1057       C  0.93556225  0.99798513  0.01058744    -0.15120
C1058       C  0.93478120  0.50284050  0.94865689    -0.30290
H1059       H  0.44493846  0.02212252  0.04959358     0.13910
H1060       H  0.93617464  0.47712492  0.91810939     0.14480
C1061       C  0.56098449  0.72797783  0.98849476    -0.15120
C1062       C  0.56115305  0.76845739  0.47362866    -0.30290
H1063       H  0.56217601  0.72330394  0.03638871     0.13910
H1064       H  0.55998502  0.77000882  0.92104334     0.14480
C1065       C  0.85935637  0.89778282  0.73432905    -0.15120
C1066       C  0.89424469  0.87293698  0.73444471    -0.30290
H1067       H  0.86170919  0.92585647  0.71232118     0.13910
H1068       H  0.89164704  0.84551193  0.75822435     0.14480
C1069       C  0.61144472  0.87579190  0.73339051    -0.15120
C1070       C  0.64735407  0.85249866  0.72498869    -0.30290
H1071       H  0.61372661  0.90115469  0.76448965     0.13910
H1072       H  0.64543113  0.82618472  0.69583336     0.14480
C1073       C  0.88003145  0.80495915  0.51183224    -0.15120
C1074       C  0.87086139  0.80195418  0.96060934    -0.30290
H1075       H  0.85445366  0.80384041  0.54591572     0.13910
H1076       H  0.89758298  0.79939573  0.92808486     0.14480
C1077       C  0.61937145  0.94769408  0.52870449    -0.15120
C1078       C  0.62887622  0.94223593  0.96447626    -0.30290
H1079       H  0.64513512  0.94603505  0.56250296     0.13910
H1080       H  0.60239069  0.94546480  0.93205098     0.14480
C1081       C  0.81151615  0.98212386  0.98978880    -0.15120
C1082       C  0.81932742  0.51881136  0.98358351    -0.30290
H1083       H  0.81302714  0.97884524  0.03801250     0.13910
H1084       H  0.82375809  0.52198389  0.93565060     0.14480
C1085       C  0.68559135  0.75011285  0.51077924    -0.15120
C1086       C  0.68529486  0.75252093  0.95092659    -0.30290
H1087       H  0.68386153  0.77146270  0.04139019     0.13910
H1088       H  0.68635188  0.72721326  0.91957256     0.14480
loop_ 
_geom_bond_atom_site_label_1 
_geom_bond_atom_site_label_2 
_geom_bond_distance 
_geom_bond_site_symmetry_2 
_ccdc_geom_bond_type 
Fe1          O17   2.082       .  S
Fe1           O7   2.070       .  S
Fe1          O14   2.055       .  S
Fe1           O6   2.089       .  S
Fe1          O12   1.972       .  S
Fe2           O5   2.051       .  S
Fe2           O9   2.049       .  S
Fe2          O13   2.050       .  S
Fe2          O18   2.053       .  S
Fe2          O12   1.971       .  S
Fe3          O21   2.050       .  S
Fe3           O8   2.070       .  S
Fe3          O15   2.073       .  S
Fe3           O4   2.066       .  S
Fe3          O12   1.975       .  S
O4           C11   1.268       .  A
O5           C19   1.266       .  A
O6           C11   1.276       .  A
O7           C10   1.266       .  A
O8           C20   1.270       .  A
O9           C22   1.266       .  A
C10          O15   1.270       .  A
C10         C113   1.485       .  S
C11         C118   1.487       .  S
O13          C16   1.266       .  A
O14          C16   1.265       .  A
C16         C126   1.463       .  S
O17          C22   1.276       .  A
O18          C20   1.268       .  A
C19          O21   1.265       .  A
C19         C122   1.462       .  S
C20         C134   1.472       .  S
C22         C129   1.474       .  S
Fe23         O39   2.052   1_455  S
Fe23         O36   2.070       .  S
Fe23         O28   2.072       .  S
Fe23        O573   2.075   1_455  S
Fe23         O34   1.948   1_455  S
Fe24         O35   2.057   1_655  S
Fe24         O40   2.073   1_655  S
Fe24        O571   2.053       .  S
Fe24        O575   2.077       .  S
Fe24         O34   1.942       .  S
Fe25         O43   2.074       .  S
Fe25         O30   2.057       .  S
Fe25         O37   2.084       .  S
Fe25        O570   2.088       .  S
Fe25        O578   1.945       .  S
O26        Fe569   2.094   1_455  S
O26          C33   1.272       .  A
O27        Fe568   2.058       .  S
O27          C41   1.275       .  A
O28          C33   1.266       .  A
O29        Fe567   2.083       .  S
O29          C32   1.274       .  A
O30         C586   1.266       .  A
O31        Fe568   2.071       .  S
O31          C44   1.267       .  A
C32          O37   1.272       .  A
C32          C90   1.483       .  S
C33          C94   1.484       .  S
O34        Fe569   1.947       .  S
O35          C38   1.276       .  A
O36          C38   1.277       .  A
C38         C102   1.466       .  S
O39         C588   1.261       .  A
O40          C42   1.267       .  A
C41          O43   1.276       .  A
C41          C98   1.467       .  S
C42         O574   1.266       .  A
C42         C109   1.482       .  S
C44         O583   1.263       .  A
C44         C106   1.478       .  S
Fe45         O61   2.063       .  S
Fe45         O58   2.069       .  S
Fe45         O50   2.088       .  S
Fe45        O595   2.087       .  S
Fe45         O56   1.947       .  S
Fe46         O49   2.058   1_655  S
Fe46         O53   2.072   1_655  S
Fe46        O601   2.056       .  S
Fe46        O606   2.076   1_556  S
Fe46        O600   1.944   1_556  S
Fe47         O65   2.070       .  S
Fe47         O52   2.052   1_455  S
Fe47         O59   2.072       .  S
Fe47        O592   2.075   1_455  S
Fe47        O600   1.948   1_455  S
O48        Fe591   2.076       .  S
O48          C55   1.272       .  A
O49          C63   1.276   1_556  A
O50          C55   1.273       .  A
O51        Fe589   2.094   1_455  S
O51          C54   1.271       .  A
O52         C608   1.261       .  A
O53          C66   1.267   1_556  A
C54          O59   1.266       .  A
C54         C117   1.484       .  S
C55         C114   1.482       .  S
O56        Fe590   1.939       .  S
O56        Fe591   1.947       .  S
O57        Fe590   2.063       .  S
O57          C60   1.277       .  A
O58          C60   1.276       .  A
C60         C121   1.466       .  S
O61         C610   1.267       .  A
O62        Fe590   2.071       .  S
O62          C64   1.267       .  A
C63          O65   1.277       .  A
C63         C125   1.466       .  S
C64         O596   1.263       .  A
C64         C241   1.479       .  S
C66         O605   1.265       .  A
C66         C110   1.480   1_554  S
Fe67         O83   2.072       .  S
Fe67         O73   2.065       .  S
Fe67         O80   2.048       .  S
Fe67         O72   2.078       .  S
Fe67         O78   1.975       .  S
Fe68         O71   2.054       .  S
Fe68         O75   2.053   1_556  S
Fe68         O79   2.056       .  S
Fe68         O84   2.049       .  S
Fe68         O78   1.972   1_556  S
Fe69         O87   2.052       .  S
Fe69         O74   2.080       .  S
Fe69         O81   2.087       .  S
Fe69         O70   2.069       .  S
Fe69         O78   1.972       .  S
O70          C77   1.266       .  A
O71          C85   1.267   1_556  A
O72          C77   1.271       .  A
O73          C76   1.267       .  A
O74          C86   1.276       .  A
O75          C88   1.268       .  A
C76          O81   1.275       .  A
C76          C93   1.487       .  S
C77          C89   1.486       .  S
O79          C82   1.267   1_556  A
O80          C82   1.264       .  A
C82          C97   1.463       .  S
O83          C88   1.271       .  A
O84          C86   1.266   1_556  A
C85          O87   1.264       .  A
C85         C101   1.463   1_554  S
C86         C266   1.474   1_554  S
C88         C133   1.472       .  S
C89          C90   1.347       .  D
C89          H91   1.086       .  S
C90          H92   1.087       .  S
C93          C94   1.346       .  D
C93          H95   1.086       .  S
C94          H96   1.088       .  S
C97         C234   1.342   1_554  D
C97          H99   1.088       .  S
C98         C233   1.345       .  D
C98         H100   1.087       .  S
C101        C238   1.344       .  D
C101        H103   1.087   1_556  S
C102        C237   1.344       .  D
C102        H104   1.087       .  S
C105        C200   1.488       .  S
C105        C378   1.349       .  D
C105        H651   1.087       .  S
C106        C377   1.343   1_545  D
C106        H108   1.087   1_545  S
H107        C649   1.087       .  S
C109        C246   1.349       .  D
C109        H111   1.087       .  S
C110        C245   1.349       .  D
C110        H248   1.087       .  S
H112        C246   1.087       .  S
C113        C114   1.348       .  D
C113        H115   1.086       .  S
C114        H116   1.087       .  S
C117        C118   1.346       .  D
C117        H119   1.088       .  S
C118        H120   1.086       .  S
C121        C258   1.343   1_554  D
C121        H123   1.087       .  S
C122        C257   1.342       .  D
C122        H124   1.088       .  S
C125        C262   1.344   1_554  D
C125        H127   1.087       .  S
C126        C261   1.345       .  D
C126        H128   1.087       .  S
C129        C402   1.338       .  D
C129        H131   1.087       .  S
C130        C222   1.473       .  S
C130        C401   1.338   1_545  D
C130        H132   1.087       .  S
C133        C270   1.346   1_554  D
C133        H271   1.087       .  S
C134        C269   1.346       .  D
C134        H136   1.087       .  S
H135        C269   1.087       .  S
Fe137       O153   2.077       .  S
Fe137       O143   2.073       .  S
Fe137       O150   2.055       .  S
Fe137       O142   2.088       .  S
Fe137       O148   1.975       .  S
Fe138       O141   2.054       .  S
Fe138       O145   2.047       .  S
Fe138       O149   2.052       .  S
Fe138       O154   2.052       .  S
Fe138       O148   1.974       .  S
Fe139       O157   2.056       .  S
Fe139       O144   2.069       .  S
Fe139       O151   2.075       .  S
Fe139       O140   2.073       .  S
Fe139       O148   1.976       .  S
O140        C147   1.269       .  A
O141        C155   1.267       .  A
O142        C147   1.275       .  A
O143        C146   1.267       .  A
O144        C156   1.269       .  A
O145        C158   1.265       .  A
C146        O151   1.270       .  A
C146        C249   1.489       .  S
C147        C254   1.491       .  S
O149        C152   1.267       .  A
O150        C152   1.265       .  A
C152        C262   1.464       .  S
O153        C158   1.275       .  A
O154        C156   1.267       .  A
C155        O157   1.266       .  A
C155        C258   1.466       .  S
C156        C270   1.472       .  S
C158        C265   1.473       .  S
Fe159       O175   2.056   1_455  S
Fe159       O709   2.080   1_455  S
Fe159       O172   2.072       .  S
Fe159       O164   2.078       .  S
Fe159       O170   1.945       .  S
Fe160       O707   2.054       .  S
Fe160       O711   2.078       .  S
Fe160       O171   2.055   1_655  S
Fe160       O176   2.072   1_655  S
Fe160       O170   1.941   1_655  S
Fe161       O179   2.068       .  S
Fe161       O166   2.063       .  S
Fe161       O173   2.086       .  S
Fe161       O706   2.085       .  S
Fe161       O714   1.950       .  S
O162       Fe705   2.089   1_455  S
O162        C169   1.271       .  A
O163       Fe704   2.057       .  S
O163        C177   1.277       .  A
O164        C169   1.268       .  A
O165       Fe703   2.080       .  S
O165        C168   1.274       .  A
O166        C722   1.266       .  A
O167       Fe704   2.076       .  S
O167        C180   1.267       .  A
C168        O173   1.273       .  A
C168        C226   1.482       .  S
C169        C230   1.485       .  S
O170       Fe705   1.948   1_455  S
O171        C174   1.276       .  A
O172        C174   1.278       .  A
C174        C238   1.466       .  S
O175        C724   1.262       .  A
O176        C178   1.267       .  A
C177        O179   1.275       .  A
C177        C234   1.463       .  S
C178        O710   1.266       .  A
C178        C245   1.480       .  S
C180        O719   1.265       .  A
C180        C242   1.486       .  S
Fe181       O197   2.059       .  S
Fe181       O731   2.060       .  S
Fe181       O194   2.060       .  S
Fe181       O186   2.075       .  S
Fe181       O192   1.960       .  S
Fe182       O185   2.053   1_655  S
Fe182       O189   2.072   1_655  S
Fe182       O737   2.050       .  S
Fe182       O742   2.078       .  S
Fe182       O736   1.944       .  S
Fe183       O201   2.073       .  S
Fe183       O188   2.056   1_455  S
Fe183       O195   2.077       .  S
Fe183       O728   2.080   1_455  S
Fe183       O736   1.949   1_455  S
O184       Fe727   2.090       .  S
O184        C191   1.272       .  A
O185        C199   1.275       .  A
O186        C191   1.269       .  A
O187       Fe725   2.096   1_455  S
O187        C190   1.271       .  A
O188        C744   1.262       .  A
O189        C202   1.267       .  A
C190        O195   1.267       .  A
C190        C253   1.489       .  S
C191        C250   1.484       .  S
O192       Fe726   1.950       .  S
O192       Fe727   1.950       .  S
O193       Fe726   2.059       .  S
O193        C196   1.274       .  A
O194        C196   1.271       .  A
C196        C257   1.462       .  S
O197        C746   1.267       .  A
O198       Fe726   2.073       .  S
O198        C200   1.269       .  A
C199        O201   1.278       .  A
C199        C261   1.466       .  S
C200        O732   1.268       .  A
C202        O741   1.266       .  A
C202        C246   1.481       .  S
Fe203       O219   2.070       .  S
Fe203       O209   2.073       .  S
Fe203       O216   2.059       .  S
Fe203       O208   2.076       .  S
Fe203       O214   1.975       .  S
Fe204       O207   2.052       .  S
Fe204       O211   2.053       .  S
Fe204       O215   2.055       .  S
Fe204       O220   2.048       .  S
Fe204       O214   1.974       .  S
Fe205       O223   2.052       .  S
Fe205       O210   2.077       .  S
Fe205       O217   2.082       .  S
Fe205       O206   2.067       .  S
Fe205       O214   1.975       .  S
O206        C213   1.265       .  A
O207        C221   1.266       .  A
O208        C213   1.270       .  A
O209        C212   1.269       .  A
O210        C222   1.275       .  A
O211        C224   1.268       .  A
C212        O217   1.274       .  A
C212        C229   1.488       .  S
C213        C225   1.485       .  S
O215        C218   1.267       .  A
O216        C218   1.267       .  A
C218        C233   1.467       .  S
O219        C224   1.270       .  A
O220        C222   1.266       .  A
C221        O223   1.263       .  A
C221        C237   1.463       .  S
C224        C269   1.473       .  S
C225        C226   1.346       .  D
C225        H227   1.086       .  S
C226        H228   1.087       .  S
C229        C230   1.348       .  D
C229        H231   1.086       .  S
C230        H232   1.087       .  S
C233        H235   1.088       .  S
C234        H236   1.087       .  S
C237        H239   1.087       .  S
C238        H240   1.087       .  S
C241        C514   1.343   1_554  D
C241        H787   1.087       .  S
C242        C513   1.349   1_546  D
C242        H244   1.087   1_545  S
H243        C785   1.087       .  S
C245        H247   1.087   1_556  S
C249        C250   1.349       .  D
C249        H251   1.086       .  S
C250        H252   1.087       .  S
C253        C254   1.349       .  D
C253        H255   1.087       .  S
C254        H256   1.086       .  S
C257        H259   1.087       .  S
C258        H260   1.088       .  S
C261        H263   1.087       .  S
C262        H264   1.087       .  S
C265        C538   1.338       .  D
C265        H267   1.088   1_556  S
C266        C537   1.338   1_545  D
C266        H268   1.087       .  S
C270        H272   1.087       .  S
Fe273       O289   2.077       .  S
Fe273       O279   2.073       .  S
Fe273       O286   2.055       .  S
Fe273       O278   2.088       .  S
Fe273       O284   1.975       .  S
Fe274       O277   2.054       .  S
Fe274       O281   2.047       .  S
Fe274       O285   2.052       .  S
Fe274       O290   2.052       .  S
Fe274       O284   1.974       .  S
Fe275       O293   2.056       .  S
Fe275       O280   2.069       .  S
Fe275       O287   2.075       .  S
Fe275       O276   2.073       .  S
Fe275       O284   1.976       .  S
O276        C283   1.269       .  A
O277        C291   1.267       .  A
O278        C283   1.275       .  A
O279        C282   1.267       .  A
O280        C292   1.269       .  A
O281        C294   1.265       .  A
C282        O287   1.270       .  A
C282        C385   1.489       .  S
C283        C390   1.491       .  S
O285        C288   1.267       .  A
O286        C288   1.265       .  A
C288        C398   1.464       .  S
O289        C294   1.275       .  A
O290        C292   1.267       .  A
C291        O293   1.266       .  A
C291        C394   1.466       .  S
C292        C406   1.472       .  S
C294        C401   1.473       .  S
Fe295       O311   2.056   1_455  S
Fe295       O845   2.080   1_455  S
Fe295       O308   2.072       .  S
Fe295       O300   2.078       .  S
Fe295       O306   1.945       .  S
Fe296       O843   2.054       .  S
Fe296       O847   2.078       .  S
Fe296       O307   2.056   1_655  S
Fe296       O312   2.072   1_655  S
Fe296       O306   1.941   1_655  S
Fe297       O315   2.068       .  S
Fe297       O302   2.063       .  S
Fe297       O309   2.086       .  S
Fe297       O842   2.085       .  S
Fe297       O850   1.950       .  S
O298       Fe841   2.089   1_455  S
O298        C305   1.271       .  A
O299       Fe840   2.057       .  S
O299        C313   1.277       .  A
O300        C305   1.268       .  A
O301       Fe839   2.080       .  S
O301        C304   1.274       .  A
O302        C858   1.266       .  A
O303       Fe840   2.076       .  S
O303        C316   1.267       .  A
C304        O309   1.273       .  A
C304        C362   1.482       .  S
C305        C366   1.485       .  S
O306       Fe841   1.948   1_455  S
O307        C310   1.276       .  A
O308        C310   1.278       .  A
C310        C374   1.466       .  S
O311        C860   1.262       .  A
O312        C314   1.267       .  A
C313        O315   1.275       .  A
C313        C370   1.463       .  S
C314        O846   1.266       .  A
C314        C381   1.480       .  S
C316        O855   1.265       .  A
C316        C378   1.485       .  S
Fe317       O333   2.059       .  S
Fe317       O867   2.059       .  S
Fe317       O330   2.060       .  S
Fe317       O322   2.075       .  S
Fe317       O328   1.960       .  S
Fe318       O321   2.053   1_655  S
Fe318       O325   2.072   1_654  S
Fe318       O873   2.051       .  S
Fe318       O878   2.078       .  S
Fe318       O872   1.944       .  S
Fe319       O337   2.073       .  S
Fe319       O324   2.056   1_455  S
Fe319       O331   2.077       .  S
Fe319       O864   2.080   1_455  S
Fe319       O872   1.949   1_455  S
O320       Fe863   2.090       .  S
O320        C327   1.272       .  A
O321        C335   1.275       .  A
O322        C327   1.269       .  A
O323       Fe861   2.096   1_455  S
O323        C326   1.271       .  A
O324        C880   1.262       .  A
O325        C338   1.267   1_556  A
C326        O331   1.267       .  A
C326        C389   1.488       .  S
C327        C386   1.484       .  S
O328       Fe862   1.950       .  S
O328       Fe863   1.950       .  S
O329       Fe862   2.059   1_556  S
O329        C332   1.274   1_556  A
O330        C332   1.271       .  A
C332        C393   1.462       .  S
O333        C882   1.267       .  A
O334       Fe862   2.073       .  S
O334        C336   1.269       .  A
C335        O337   1.278       .  A
C335        C397   1.466       .  S
C336        O868   1.268       .  A
C336        C513   1.488       .  S
C338        O877   1.266       .  A
C338        C382   1.481   1_554  S
Fe339       O355   2.070       .  S
Fe339       O345   2.072       .  S
Fe339       O352   2.058       .  S
Fe339       O344   2.076       .  S
Fe339       O350   1.975       .  S
Fe340       O343   2.052       .  S
Fe340       O347   2.053       .  S
Fe340       O351   2.055       .  S
Fe340       O356   2.048       .  S
Fe340       O350   1.974   1_556  S
Fe341       O359   2.052       .  S
Fe341       O346   2.077       .  S
Fe341       O353   2.083       .  S
Fe341       O342   2.068       .  S
Fe341       O350   1.974       .  S
O342        C349   1.266       .  A
O343        C357   1.266   1_556  A
O344        C349   1.270       .  A
O345        C348   1.269       .  A
O346        C358   1.275       .  A
O347        C360   1.268   1_556  A
C348        O353   1.274       .  A
C348        C365   1.488       .  S
C349        C361   1.485       .  S
O351        C354   1.267   1_556  A
O352        C354   1.267       .  A
C354        C369   1.467   1_554  S
O355        C360   1.270       .  A
O356        C358   1.266   1_556  A
C357        O359   1.263       .  A
C357        C373   1.463   1_554  S
C358        C538   1.473   1_554  S
C360        C405   1.472       .  S
C361        C362   1.346       .  D
C361        H363   1.086       .  S
C362        H364   1.087       .  S
C365        C366   1.348       .  D
C365        H367   1.086       .  S
C366        H368   1.087       .  S
C369        C506   1.345       .  D
C369        H371   1.088   1_556  S
C370        C505   1.342       .  D
C370        H372   1.087       .  S
C373        C510   1.344       .  D
C373        H375   1.087   1_556  S
C374        C509   1.345       .  D
C374        H376   1.087       .  S
C377        C472   1.479       .  S
C377        H923   1.087   1_565  S
C378        H380   1.087       .  S
H379        C921   1.087   1_545  S
C381        C518   1.349       .  D
C381        H383   1.087       .  S
C382        C517   1.349       .  D
C382        H520   1.087       .  S
H384        C518   1.087       .  S
C385        C386   1.349       .  D
C385        H387   1.086       .  S
C386        H388   1.087       .  S
C389        C390   1.349       .  D
C389        H391   1.087       .  S
C390        H392   1.086       .  S
C393        C530   1.342   1_554  D
C393        H395   1.087       .  S
C394        C529   1.343       .  D
C394        H396   1.088       .  S
C397        C534   1.345   1_554  D
C397        H399   1.087       .  S
C398        C533   1.344       .  D
C398        H400   1.087       .  S
C401        H403   1.088       .  S
C402        C494   1.474       .  S
C402        H404   1.087       .  S
C405        C542   1.346   1_554  D
C405        H543   1.087       .  S
C406        C541   1.346       .  D
C406        H408   1.087       .  S
H407        C541   1.087       .  S
Fe409       O425   2.082       .  S
Fe409       O415   2.070       .  S
Fe409       O422   2.055       .  S
Fe409       O414   2.088       .  S
Fe409       O420   1.972       .  S
Fe410       O413   2.051       .  S
Fe410       O417   2.049       .  S
Fe410       O421   2.050       .  S
Fe410       O426   2.053       .  S
Fe410       O420   1.971       .  S
Fe411       O429   2.051       .  S
Fe411       O416   2.070       .  S
Fe411       O423   2.073       .  S
Fe411       O412   2.066       .  S
Fe411       O420   1.975       .  S
O412        C419   1.268       .  A
O413        C427   1.266       .  A
O414        C419   1.276       .  A
O415        C418   1.266       .  A
O416        C428   1.270       .  A
O417        C430   1.266       .  A
C418        O423   1.270       .  A
C418        C521   1.485       .  S
C419        C526   1.487       .  S
O421        C424   1.266       .  A
O422        C424   1.265       .  A
C424        C534   1.464       .  S
O425        C430   1.276       .  A
O426        C428   1.268       .  A
C427        O429   1.265       .  A
C427        C530   1.462       .  S
C428        C542   1.472       .  S
C430        C537   1.474       .  S
Fe431       O447   2.052   1_455  S
Fe431       O981   2.075   1_455  S
Fe431       O444   2.070       .  S
Fe431       O436   2.072       .  S
Fe431       O442   1.948   1_455  S
Fe432       O979   2.053       .  S
Fe432       O983   2.077       .  S
Fe432       O443   2.058   1_655  S
Fe432       O448   2.073   1_655  S
Fe432       O442   1.942       .  S
Fe433       O451   2.074       .  S
Fe433       O438   2.057       .  S
Fe433       O445   2.084       .  S
Fe433       O978   2.088       .  S
Fe433       O986   1.945       .  S
O434       Fe977   2.094   1_455  S
O434        C441   1.272       .  A
O435       Fe976   2.058       .  S
O435        C449   1.275       .  A
O436        C441   1.266       .  A
O437       Fe975   2.083       .  S
O437        C440   1.274       .  A
O438        C994   1.266       .  A
O439       Fe976   2.071       .  S
O439        C452   1.267       .  A
C440        O445   1.273       .  A
C440        C498   1.483       .  S
C441        C502   1.484       .  S
O442       Fe977   1.947       .  S
O443        C446   1.276       .  A
O444        C446   1.277       .  A
C446        C510   1.466       .  S
O447        C996   1.261       .  A
O448        C450   1.267       .  A
C449        O451   1.276       .  A
C449        C506   1.467       .  S
C450        O982   1.266       .  A
C450        C517   1.482       .  S
C452        O991   1.263       .  A
C452        C514   1.478       .  S
Fe453       O469   2.063       .  S
Fe453      O1003   2.086       .  S
Fe453       O466   2.068       .  S
Fe453       O458   2.088       .  S
Fe453       O464   1.947       .  S
Fe454       O457   2.058   1_655  S
Fe454       O461   2.072   1_655  S
Fe454      O1009   2.056       .  S
Fe454      O1014   2.076       .  S
Fe454      O1008   1.944       .  S
Fe455       O473   2.070       .  S
Fe455       O460   2.052   1_455  S
Fe455       O467   2.072       .  S
Fe455      O1000   2.075   1_455  S
Fe455      O1008   1.948   1_455  S
O456       Fe999   2.076       .  S
O456        C463   1.272       .  A
O457        C471   1.276       .  A
O458        C463   1.273       .  A
O459       Fe997   2.094   1_455  S
O459        C462   1.271       .  A
O460       C1016   1.261       .  A
O461        C474   1.267       .  A
C462        O467   1.266       .  A
C462        C525   1.484       .  S
C463        C522   1.482       .  S
O464       Fe998   1.939       .  S
O464       Fe999   1.947       .  S
O465       Fe998   2.064       .  S
O465        C468   1.277       .  A
O466        C468   1.276       .  A
C468        C529   1.466       .  S
O469       C1018   1.267       .  A
O470       Fe998   2.071       .  S
O470        C472   1.267       .  A
C471        O473   1.277       .  A
C471        C533   1.466       .  S
C472       O1004   1.263       .  A
C474       O1013   1.265       .  A
C474        C518   1.480       .  S
Fe475       O491   2.072       .  S
Fe475       O481   2.065       .  S
Fe475       O488   2.048       .  S
Fe475       O480   2.078       .  S
Fe475       O486   1.975       .  S
Fe476       O479   2.054       .  S
Fe476       O483   2.053       .  S
Fe476       O487   2.056       .  S
Fe476       O492   2.049       .  S
Fe476       O486   1.971       .  S
Fe477       O495   2.052       .  S
Fe477       O482   2.080       .  S
Fe477       O489   2.087       .  S
Fe477       O478   2.069       .  S
Fe477       O486   1.972       .  S
O478        C485   1.266       .  A
O479        C493   1.267       .  A
O480        C485   1.271       .  A
O481        C484   1.267       .  A
O482        C494   1.276       .  A
O483        C496   1.268       .  A
C484        O489   1.275       .  A
C484        C501   1.487       .  S
C485        C497   1.486       .  S
O487        C490   1.267       .  A
O488        C490   1.264       .  A
C490        C505   1.463       .  S
O491        C496   1.271       .  A
O492        C494   1.266       .  A
C493        O495   1.264       .  A
C493        C509   1.463       .  S
C496        C541   1.472       .  S
C497        C498   1.347       .  D
C497        H499   1.086       .  S
C498        H500   1.087       .  S
C501        C502   1.346       .  D
C501        H503   1.086       .  S
C502        H504   1.088       .  S
C505        H507   1.088       .  S
C506        H508   1.087       .  S
C509        H511   1.087       .  S
C510        H512   1.087       .  S
C513       H1059   1.087   1_565  S
C514        H516   1.087       .  S
H515       C1057   1.087   1_545  S
C517        H519   1.087   1_556  S
C521        C522   1.348       .  D
C521        H523   1.086       .  S
C522        H524   1.087       .  S
C525        C526   1.346       .  D
C525        H527   1.088       .  S
C526        H528   1.086       .  S
C529        H531   1.087       .  S
C530        H532   1.088       .  S
C533        H535   1.087       .  S
C534        H536   1.087       .  S
C537        H539   1.087   1_556  S
C538        H540   1.087       .  S
C542        H544   1.087       .  S
Fe545       O561   2.076       .  S
Fe545       O551   2.067       .  S
Fe545       O558   2.053       .  S
Fe545       O550   2.079       .  S
Fe545       O556   1.979       .  S
Fe546       O549   2.046       .  S
Fe546       O553   2.053       .  S
Fe546       O557   2.041       .  S
Fe546       O562   2.056       .  S
Fe546       O556   1.973       .  S
Fe547       O565   2.062       .  S
Fe547       O552   2.066       .  S
Fe547       O559   2.070       .  S
Fe547       O548   2.073       .  S
Fe547       O556   1.978       .  S
O548        C555   1.269       .  A
O549        C563   1.265       .  A
O550        C555   1.273       .  A
O551        C554   1.266       .  A
O552        C564   1.269       .  A
O553        C566   1.267       .  A
C554        O559   1.270       .  A
C554        C657   1.483       .  S
C555        C662   1.487       .  S
O557        C560   1.265       .  A
O558        C560   1.263       .  A
C560        C670   1.460       .  S
O561        C566   1.275       .  A
O562        C564   1.268       .  A
C563        O565   1.267       .  A
C563        C666   1.466       .  S
C564        C678   1.473       .  S
C566        C673   1.475       .  S
Fe567       O583   2.060       .  S
Fe567       O580   2.074       .  S
Fe567       O572   2.079       .  S
Fe567       O578   1.942       .  S
Fe568       O579   2.061       .  S
Fe568       O584   2.066       .  S
Fe568       O578   1.940       .  S
Fe569       O587   2.080       .  S
Fe569       O574   2.059   1_655  S
Fe569       O581   2.085       .  S
O570        C577   1.271       .  A
O571        C585   1.275       .  A
O572        C577   1.268       .  A
O573        C576   1.273       .  A
O575        C588   1.268       .  A
C576        O581   1.272       .  A
C576        C634   1.480       .  S
C577        C638   1.484       .  S
O579        C582   1.275       .  A
O580        C582   1.278       .  A
C582        C646   1.469       .  S
O584        C586   1.266       .  A
C585        O587   1.278       .  A
C585        C642   1.467       .  S
C586        C653   1.476       .  S
C588        C650   1.479       .  S
Fe589       O605   2.055   1_655  S
Fe589       O602   2.081       .  S
Fe589       O594   2.084       .  S
Fe589       O600   1.946       .  S
Fe590       O593   2.066       .  S
Fe590       O597   2.068   1_554  S
Fe591       O609   2.065       .  S
Fe591       O596   2.058       .  S
Fe591       O603   2.079       .  S
O592        C599   1.273       .  A
O593        C607   1.278       .  A
O594        C599   1.272       .  A
O595        C598   1.271       .  A
O597        C610   1.266   1_556  A
C598        O603   1.269       .  A
C598        C661   1.484       .  S
C599        C658   1.479       .  S
O601        C604   1.275   1_556  A
O602        C604   1.278       .  A
C604        C665   1.469       .  S
O606        C608   1.268       .  A
C607        O609   1.276       .  A
C607        C669   1.465       .  S
C608        C785   1.478       .  S
C610        C654   1.481   1_554  S
Fe611       O627   2.066       .  S
Fe611       O617   2.075       .  S
Fe611       O624   2.060       .  S
Fe611       O616   2.073       .  S
Fe611       O622   1.979       .  S
Fe612       O615   2.050       .  S
Fe612       O619   2.062       .  S
Fe612       O623   2.051       .  S
Fe612       O628   2.054       .  S
Fe612       O622   1.977   1_556  S
Fe613       O631   2.046       .  S
Fe613       O618   2.073       .  S
Fe613       O625   2.078       .  S
Fe613       O614   2.063       .  S
Fe613       O622   1.981       .  S
O614        C621   1.264       .  A
O615        C629   1.267   1_556  A
O616        C621   1.269       .  A
O617        C620   1.270       .  A
O618        C630   1.274       .  A
O619        C632   1.268   1_556  A
C620        O625   1.273       .  A
C620        C637   1.488       .  S
C621        C633   1.482       .  S
O623        C626   1.267   1_556  A
O624        C626   1.268       .  A
C626        C641   1.466   1_554  S
O627        C632   1.268       .  A
O628        C630   1.266   1_556  A
C629        O631   1.262       .  A
C629        C645   1.459   1_554  S
C630        C810   1.475   1_554  S
C632        C677   1.477       .  S
C633        C634   1.346       .  D
C633        H635   1.086       .  S
C634        H636   1.087       .  S
C637        C638   1.348       .  D
C637        H639   1.086       .  S
C638        H640   1.087       .  S
C641        C778   1.344       .  D
C641        H643   1.088   1_556  S
C642        C777   1.346       .  D
C642        H644   1.087       .  S
C645        C782   1.341       .  D
C645        H647   1.087   1_556  S
C646        C781   1.346       .  D
C646        H648   1.087       .  S
C649        C744   1.481       .  S
C649        C922   1.343       .  D
C650        C921   1.342   1_545  D
C650        H652   1.087   1_545  S
C653        C790   1.346       .  D
C653        H655   1.087       .  S
C654        C789   1.347       .  D
C654        H792   1.087       .  S
H656        C790   1.087       .  S
C657        C658   1.346       .  D
C657        H659   1.086       .  S
C658        H660   1.087       .  S
C661        C662   1.348       .  D
C661        H663   1.087       .  S
C662        H664   1.086       .  S
C665        C802   1.348   1_554  D
C665        H667   1.087       .  S
C666        C801   1.346       .  D
C666        H668   1.088       .  S
C669        C806   1.342   1_554  D
C669        H671   1.087       .  S
C670        C805   1.342       .  D
C670        H672   1.087       .  S
C673        C946   1.340       .  D
C673        H675   1.087       .  S
C674        C766   1.470       .  S
C674        C945   1.340   1_545  D
C674        H676   1.088       .  S
C677        C814   1.346   1_554  D
C677        H815   1.087       .  S
C678        C813   1.345       .  D
C678        H680   1.087       .  S
H679        C813   1.087       .  S
Fe681       O697   2.055       .  S
Fe681       O687   2.060       .  S
Fe681       O694   2.058       .  S
Fe681       O686   2.070       .  S
Fe681       O692   1.972       .  S
Fe682       O685   2.055       .  S
Fe682       O689   2.055       .  S
Fe682       O693   2.055       .  S
Fe682       O698   2.059       .  S
Fe682       O692   1.971       .  S
Fe683       O701   2.072       .  S
Fe683       O688   2.067       .  S
Fe683       O695   2.093       .  S
Fe683       O684   2.093       .  S
Fe683       O692   1.965       .  S
O684        C691   1.274       .  A
O685        C699   1.270       .  A
O686        C691   1.269       .  A
O687        C690   1.265       .  A
O688        C700   1.267       .  A
O689        C702   1.264       .  A
C690        O695   1.273       .  A
C690        C793   1.487       .  S
C691        C798   1.488       .  S
O693        C696   1.270       .  A
O694        C696   1.267       .  A
C696        C806   1.464       .  S
O697        C702   1.269       .  A
O698        C700   1.267       .  A
C699        O701   1.273       .  A
C699        C802   1.470       .  S
C700        C814   1.477       .  S
C702        C809   1.471   1_556  S
Fe703       O719   2.067       .  S
Fe703       O716   2.065       .  S
Fe703       O708   2.082       .  S
Fe703       O714   1.946       .  S
Fe704       O715   2.054       .  S
Fe704       O720   2.068       .  S
Fe704       O714   1.942       .  S
Fe705       O723   2.075       .  S
Fe705       O710   2.058   1_655  S
Fe705       O717   2.084       .  S
O706        C713   1.270       .  A
O707        C721   1.275       .  A
O708        C713   1.270       .  A
O709        C712   1.273       .  A
O711        C724   1.268       .  A
C712        O717   1.272       .  A
C712        C770   1.481       .  S
C713        C774   1.484       .  S
O715        C718   1.276       .  A
O716        C718   1.276       .  A
C718        C782   1.462       .  S
O720        C722   1.265       .  A
C721        O723   1.276       .  A
C721        C778   1.466       .  S
C722        C789   1.480       .  S
C724        C786   1.481       .  S
Fe725       O741   2.062   1_655  S
Fe725       O738   2.077       .  S
Fe725       O730   2.091       .  S
Fe725       O736   1.950       .  S
Fe726       O729   2.053       .  S
Fe726       O733   2.066       .  S
Fe727       O745   2.060       .  S
Fe727       O732   2.076       .  S
Fe727       O739   2.103       .  S
O728        C735   1.274       .  A
O729        C743   1.273       .  A
O730        C735   1.274       .  A
O731        C734   1.267       .  A
O733        C746   1.266       .  A
C734        O739   1.278       .  A
C734        C797   1.488       .  S
C735        C794   1.487       .  S
O737        C740   1.274       .  A
O738        C740   1.277       .  A
C740        C801   1.466       .  S
O742        C744   1.268       .  A
C743        O745   1.273       .  A
C743        C805   1.462       .  S
C746        C790   1.476       .  S
Fe747       O763   2.067       .  S
Fe747       O753   2.080       .  S
Fe747       O760   2.064       .  S
Fe747       O752   2.072       .  S
Fe747       O758   1.977       .  S
Fe748       O751   2.050       .  S
Fe748       O755   2.057       .  S
Fe748       O759   2.047       .  S
Fe748       O764   2.053       .  S
Fe748       O758   1.976       .  S
Fe749       O767   2.059       .  S
Fe749       O754   2.066       .  S
Fe749       O761   2.073       .  S
Fe749       O750   2.068       .  S
Fe749       O758   1.979       .  S
O750        C757   1.266       .  A
O751        C765   1.265       .  A
O752        C757   1.269       .  A
O753        C756   1.270       .  A
O754        C766   1.272       .  A
O755        C768   1.269       .  A
C756        O761   1.272       .  A
C756        C773   1.488       .  S
C757        C769   1.484       .  S
O759        C762   1.265       .  A
O760        C762   1.267       .  A
C762        C777   1.468       .  S
O763        C768   1.270       .  A
O764        C766   1.267       .  A
C765        O767   1.265       .  A
C765        C781   1.466       .  S
C768        C813   1.473       .  S
C769        C770   1.347       .  D
C769        H771   1.086       .  S
C770        H772   1.087       .  S
C773        C774   1.349       .  D
C773        H775   1.086       .  S
C774        H776   1.087       .  S
C777        H779   1.088       .  S
C778        H780   1.087       .  S
C781        H783   1.087       .  S
C782        H784   1.087       .  S
C785       C1058   1.342   1_554  D
C786       C1057   1.343   1_546  D
C786        H788   1.087   1_545  S
C789        H791   1.087   1_556  S
C793        C794   1.348       .  D
C793        H795   1.086       .  S
C794        H796   1.087       .  S
C797        C798   1.348       .  D
C797        H799   1.086       .  S
C798        H800   1.087       .  S
C801        H803   1.087       .  S
C802        H804   1.087       .  S
C805        H807   1.087       .  S
C806        H808   1.087       .  S
C809       C1082   1.340   1_554  D
C809        H811   1.087       .  S
C810       C1081   1.340   1_545  D
C810        H812   1.087       .  S
C814        H816   1.087       .  S
Fe817       O833   2.054       .  S
Fe817       O823   2.060       .  S
Fe817       O830   2.058       .  S
Fe817       O822   2.070       .  S
Fe817       O828   1.972       .  S
Fe818       O821   2.055       .  S
Fe818       O825   2.055       .  S
Fe818       O829   2.055       .  S
Fe818       O834   2.059       .  S
Fe818       O828   1.971       .  S
Fe819       O837   2.072       .  S
Fe819       O824   2.067       .  S
Fe819       O831   2.092       .  S
Fe819       O820   2.093       .  S
Fe819       O828   1.965       .  S
O820        C827   1.274       .  A
O821        C835   1.270       .  A
O822        C827   1.269       .  A
O823        C826   1.265       .  A
O824        C836   1.267       .  A
O825        C838   1.264       .  A
C826        O831   1.273       .  A
C826        C929   1.487       .  S
C827        C934   1.488       .  S
O829        C832   1.270       .  A
O830        C832   1.267       .  A
C832        C942   1.464       .  S
O833        C838   1.269       .  A
O834        C836   1.267       .  A
C835        O837   1.273       .  A
C835        C938   1.470       .  S
C836        C950   1.477       .  S
C838        C945   1.471       .  S
Fe839       O855   2.066       .  S
Fe839       O852   2.064       .  S
Fe839       O844   2.082       .  S
Fe839       O850   1.946       .  S
Fe840       O851   2.054       .  S
Fe840       O856   2.068       .  S
Fe840       O850   1.942       .  S
Fe841       O859   2.075       .  S
Fe841       O846   2.058   1_655  S
Fe841       O853   2.084       .  S
O842        C849   1.270       .  A
O843        C857   1.275       .  A
O844        C849   1.270       .  A
O845        C848   1.273       .  A
O847        C860   1.268       .  A
C848        O853   1.272       .  A
C848        C906   1.481       .  S
C849        C910   1.484       .  S
O851        C854   1.276       .  A
O852        C854   1.276       .  A
C854        C918   1.462       .  S
O856        C858   1.266       .  A
C857        O859   1.276       .  A
C857        C914   1.466       .  S
C858        C925   1.481       .  S
C860        C922   1.481       .  S
Fe861       O877   2.062   1_655  S
Fe861       O874   2.077       .  S
Fe861       O866   2.091       .  S
Fe861       O872   1.950       .  S
Fe862       O865   2.053       .  S
Fe862       O869   2.066   1_554  S
Fe863       O881   2.060       .  S
Fe863       O868   2.076       .  S
Fe863       O875   2.103       .  S
O864        C871   1.274       .  A
O865        C879   1.273       .  A
O866        C871   1.274       .  A
O867        C870   1.267       .  A
O869        C882   1.266   1_556  A
C870        O875   1.278       .  A
C870        C933   1.488       .  S
C871        C930   1.487       .  S
O873        C876   1.274       .  A
O874        C876   1.277       .  A
C876        C937   1.466       .  S
O878        C880   1.268       .  A
C879        O881   1.273       .  A
C879        C941   1.462       .  S
C880       C1057   1.481       .  S
C882        C926   1.476   1_554  S
Fe883       O899   2.067       .  S
Fe883       O889   2.080       .  S
Fe883       O896   2.064       .  S
Fe883       O888   2.072       .  S
Fe883       O894   1.977       .  S
Fe884       O887   2.050       .  S
Fe884       O891   2.057       .  S
Fe884       O895   2.047       .  S
Fe884       O900   2.053       .  S
Fe884       O894   1.976   1_556  S
Fe885       O903   2.059       .  S
Fe885       O890   2.066       .  S
Fe885       O897   2.073       .  S
Fe885       O886   2.068       .  S
Fe885       O894   1.979       .  S
O886        C893   1.265       .  A
O887        C901   1.265   1_556  A
O888        C893   1.269       .  A
O889        C892   1.270       .  A
O890        C902   1.272       .  A
O891        C904   1.269   1_556  A
C892        O897   1.272       .  A
C892        C909   1.488       .  S
C893        C905   1.484       .  S
O895        C898   1.265   1_556  A
O896        C898   1.267       .  A
C898        C913   1.468       .  S
O899        C904   1.270       .  A
O900        C902   1.267   1_556  A
C901        O903   1.265       .  A
C901        C917   1.466   1_554  S
C902       C1082   1.470   1_554  S
C904        C949   1.473       .  S
C905        C906   1.347       .  D
C905        H907   1.086       .  S
C906        H908   1.087       .  S
C909        C910   1.349       .  D
C909        H911   1.086       .  S
C910        H912   1.087       .  S
C913       C1050   1.346   1_554  D
C913        H915   1.088       .  S
C914       C1049   1.344       .  D
C914        H916   1.087       .  S
C917       C1054   1.346       .  D
C917        H919   1.087   1_556  S
C918       C1053   1.341       .  D
C918        H920   1.087       .  S
C921       C1016   1.479       .  S
C922        H924   1.087       .  S
C925       C1062   1.347       .  D
C925        H927   1.087       .  S
C926       C1061   1.346       .  D
C926       H1064   1.087       .  S
H928       C1062   1.087       .  S
C929        C930   1.348       .  D
C929        H931   1.086       .  S
C930        H932   1.087       .  S
C933        C934   1.348       .  D
C933        H935   1.086       .  S
C934        H936   1.087       .  S
C937       C1074   1.345   1_554  D
C937        H939   1.087       .  S
C938       C1073   1.348       .  D
C938        H940   1.087       .  S
C941       C1078   1.342   1_554  D
C941        H943   1.087       .  S
C942       C1077   1.342       .  D
C942        H944   1.087       .  S
C945        H947   1.087       .  S
C946       C1038   1.475       .  S
C946        H948   1.087       .  S
C949       C1086   1.345   1_554  D
C949       H1087   1.087       .  S
C950       C1085   1.346       .  D
C950        H952   1.087       .  S
H951       C1085   1.087       .  S
Fe953       O969   2.076       .  S
Fe953       O959   2.067       .  S
Fe953       O966   2.053       .  S
Fe953       O958   2.079       .  S
Fe953       O964   1.979       .  S
Fe954       O957   2.046       .  S
Fe954       O961   2.053       .  S
Fe954       O965   2.041       .  S
Fe954       O970   2.057       .  S
Fe954       O964   1.973       .  S
Fe955       O973   2.062       .  S
Fe955       O960   2.066       .  S
Fe955       O967   2.070       .  S
Fe955       O956   2.073       .  S
Fe955       O964   1.978       .  S
O956        C963   1.269       .  A
O957        C971   1.265       .  A
O958        C963   1.273       .  A
O959        C962   1.265       .  A
O960        C972   1.269       .  A
O961        C974   1.267       .  A
C962        O967   1.270       .  A
C962       C1065   1.483       .  S
C963       C1070   1.487       .  S
O965        C968   1.265       .  A
O966        C968   1.263       .  A
C968       C1078   1.460       .  S
O969        C974   1.275       .  A
O970        C972   1.268       .  A
C971        O973   1.267       .  A
C971       C1074   1.466       .  S
C972       C1086   1.473       .  S
C974       C1081   1.475       .  S
Fe975       O991   2.060       .  S
Fe975       O988   2.073       .  S
Fe975       O980   2.079       .  S
Fe975       O986   1.942       .  S
Fe976       O987   2.061       .  S
Fe976       O992   2.066       .  S
Fe976       O986   1.940       .  S
Fe977       O995   2.080       .  S
Fe977       O982   2.059   1_655  S
Fe977       O989   2.085       .  S
O978        C985   1.271       .  A
O979        C993   1.275       .  A
O980        C985   1.268       .  A
O981        C984   1.273       .  A
O983        C996   1.268       .  A
C984        O989   1.273       .  A
C984       C1042   1.480       .  S
C985       C1046   1.484       .  S
O987        C990   1.275       .  A
O988        C990   1.278       .  A
C990       C1054   1.469       .  S
O992        C994   1.266       .  A
C993        O995   1.278       .  A
C993       C1050   1.467       .  S
C994       C1061   1.476       .  S
C996       C1058   1.479       .  S
Fe997      O1013   2.055   1_655  S
Fe997      O1010   2.081       .  S
Fe997      O1002   2.084       .  S
Fe997      O1008   1.946       .  S
Fe998      O1001   2.066       .  S
Fe998      O1005   2.068       .  S
Fe999      O1017   2.065       .  S
Fe999      O1004   2.058       .  S
Fe999      O1011   2.080       .  S
O1000      C1007   1.273       .  A
O1001      C1015   1.278       .  A
O1002      C1007   1.273       .  A
O1003      C1006   1.271       .  A
O1005      C1018   1.266       .  A
C1006      O1011   1.269       .  A
C1006      C1069   1.484       .  S
C1007      C1066   1.479       .  S
O1009      C1012   1.275       .  A
O1010      C1012   1.278       .  A
C1012      C1073   1.469       .  S
O1014      C1016   1.268       .  A
C1015      O1017   1.276       .  A
C1015      C1077   1.465       .  S
C1018      C1062   1.481       .  S
Fe1019     O1035   2.066       .  S
Fe1019     O1025   2.075       .  S
Fe1019     O1032   2.060       .  S
Fe1019     O1024   2.073       .  S
Fe1019     O1030   1.979       .  S
Fe1020     O1023   2.050       .  S
Fe1020     O1027   2.062       .  S
Fe1020     O1031   2.051       .  S
Fe1020     O1036   2.054       .  S
Fe1020     O1030   1.977       .  S
Fe1021     O1039   2.046       .  S
Fe1021     O1026   2.073       .  S
Fe1021     O1033   2.079       .  S
Fe1021     O1022   2.063       .  S
Fe1021     O1030   1.981       .  S
O1022      C1029   1.264       .  A
O1023      C1037   1.268       .  A
O1024      C1029   1.269       .  A
O1025      C1028   1.270       .  A
O1026      C1038   1.274       .  A
O1027      C1040   1.269       .  A
C1028      O1033   1.273       .  A
C1028      C1045   1.488       .  S
C1029      C1041   1.482       .  S
O1031      C1034   1.267       .  A
O1032      C1034   1.268       .  A
C1034      C1049   1.466       .  S
O1035      C1040   1.268       .  A
O1036      C1038   1.266       .  A
C1037      O1039   1.262       .  A
C1037      C1053   1.459       .  S
C1040      C1085   1.477       .  S
C1041      C1042   1.345       .  D
C1041      H1043   1.086       .  S
C1042      H1044   1.087       .  S
C1045      C1046   1.348       .  D
C1045      H1047   1.086       .  S
C1046      H1048   1.087       .  S
C1049      H1051   1.088       .  S
C1050      H1052   1.087       .  S
C1053      H1055   1.087       .  S
C1054      H1056   1.087       .  S
C1058      H1060   1.087       .  S
C1061      H1063   1.087   1_556  S
C1065      C1066   1.346       .  D
C1065      H1067   1.086       .  S
C1066      H1068   1.087       .  S
C1069      C1070   1.348       .  D
C1069      H1071   1.087       .  S
C1070      H1072   1.086       .  S
C1073      H1075   1.087       .  S
C1074      H1076   1.088       .  S
C1077      H1079   1.087       .  S
C1078      H1080   1.087       .  S
C1081      H1083   1.087   1_556  S
C1082      H1084   1.088       .  S
C1086      H1088   1.087       .  S
