geometry optimzed in LAMMPS
_audit_creation_date              2020-11-30 
_audit_creation_method            'lammps2cif' 
_symmetry_space_group_name_H-M    'P1' 
_symmetry_Int_Tables_number       1 
_symmetry_cell_setting            triclinic 
loop_ 
_symmetry_equiv_pos_as_xyz 
  x,y,z 
_cell_length_a                    37.9409679 
_cell_length_b                    37.00779830298399 
_cell_length_c                    30.99449424568069 
_cell_angle_alpha                 89.89031597579458 
_cell_angle_beta                  90.38229156189055 
_cell_angle_gamma                 117.48169186123313 
loop_ 
_atom_site_label 
_atom_site_type_symbol 
_atom_site_fract_x 
_atom_site_fract_y 
_atom_site_fract_z 
_atom_site_charge 
Zn1        Zn  0.27759852  0.13802622  0.89199771     1.49700
Zn2        Zn  0.19417101  0.14015624  0.89520571     1.49400
Zn3        Zn  0.19532197  0.05551894  0.89144616     1.49100
Zn4        Zn  0.22370811  0.11080068  0.97714533     1.49500
O5          O  0.22321398  0.11122814  0.91417907    -1.81500
O6          O  0.28486037  0.18524317  0.85292346    -0.72100
O7          O  0.14504968  0.10391200  0.86397959    -0.71900
O8          O  0.23308858  0.03981846  0.86220524    -0.71400
O9          O  0.22592831  0.18466681  0.85412787    -0.72100
O10         O  0.28940310  0.09771187  0.85764249    -0.71700
O11         O  0.15151525  0.04849239  0.84971379    -0.72300
O12         O  0.19345397  0.05306374  0.99787319    -0.71700
O13         O  0.17612382  0.16253636  0.94378829    -0.72500
O14         O  0.16957730  0.01496301  0.93892628    -0.71800
O15         O  0.19471187  0.14034615  0.00189397    -0.72300
O16         O  0.28032207  0.13727165  0.00083601    -0.72200
O17         O  0.31742055  0.15926496  0.94180808    -0.72000
C18         C  0.26138659  0.19931382  0.84066158     0.79800
C19         C  0.13312392  0.06967654  0.84570854     0.80300
C20         C  0.26893409  0.05964591  0.85006312     0.79200
C21         C  0.17250691  0.01876746  0.97971796     0.79600
C22         C  0.17727418  0.15900899  0.98444231     0.80700
C23         C  0.31419074  0.15587818  0.98278787     0.79800
Zn24       Zn  0.16692577  0.08376956  0.56593850     1.49700
Zn25       Zn  0.24775766  0.16769029  0.55555880     1.49400
Zn26       Zn  0.23332648  0.11634724  0.64105377     1.49100
Zn27       Zn  0.25038662  0.08376845  0.55148750     1.49500
O28         O  0.22425239  0.11259740  0.57857539    -1.81500
O29         O  0.15021469  0.12102731  0.53223602    -0.72100
O30         O  0.26507629  0.20918480  0.60268350    -0.71900
O31         O  0.18142063  0.09097180  0.67241145    -0.71400
O32         O  0.20804256  0.17603433  0.52060669    -0.72100
O33         O  0.13510848  0.06650637  0.62097369    -0.71700
O34         O  0.26182750  0.17454725  0.66235141    -0.72300
O35         O  0.27130147  0.05994081  0.59683059    -0.71700
O36         O  0.29594032  0.18067630  0.51900470    -0.72500
O37         O  0.26381466  0.08626058  0.65851188    -0.71800
O38         O  0.29764374  0.12149048  0.51594179    -0.72300
O39         O  0.21214162  0.03718854  0.51439973    -0.72200
O40         O  0.15304343  0.03240863  0.53068173    -0.72000
C41         C  0.17062387  0.15620814  0.51572627     0.79800
C42         C  0.27043306  0.20795973  0.64302239     0.80300
C43         C  0.14522971  0.07218992  0.66065053     0.79200
C44         C  0.27569365  0.06439383  0.63749244     0.79600
C45         C  0.31200339  0.15907518  0.50645143     0.80700
C46         C  0.17439718  0.01915817  0.51145401     0.79800
C47         C  0.01101885  0.99989513  0.78896433     0.48100
H48         H  0.01449536  0.00168382  0.82465938    -0.00900
C49         C  0.00271596  0.99521269  0.70566305     0.48200
H50         H  0.00070398  0.32855975  0.67059794    -0.00900
C51         C  0.32772413  0.03001124  0.77038075    -0.14600
C52         C  0.05032018  0.01510875  0.76455873    -0.14400
C53         C  0.32584987  0.29405940  0.77449399    -0.14700
C54         C  0.32341629  0.02790646  0.72636540    -0.14700
C55         C  0.04608737  0.01300912  0.72049047    -0.14300
C56         C  0.31946795  0.29029477  0.73069116    -0.14600
Zn57       Zn  0.14193302  0.19920387  0.39841079     1.49700
Zn58       Zn  0.10687688  0.22471643  0.48034073     1.49400
Zn59       Zn  0.13378225  0.28027401  0.39323461     1.49100
Zn60       Zn  0.05585568  0.19260843  0.39648846     1.49500
O61         O  0.10998200  0.22481670  0.41732323    -1.81500
O62         O  0.15735526  0.17552895  0.44830585    -0.72100
O63         O  0.13622027  0.28271057  0.50252390    -0.71900
O64         O  0.18177133  0.29191975  0.35406611    -0.71400
O65         O  0.13246607  0.19144862  0.50592692    -0.72100
O66         O  0.19209519  0.23902700  0.37025496    -0.71700
O67         O  0.15475696  0.32103942  0.44308341    -0.72300
O68         O  0.03697654  0.22860117  0.36732430    -0.71700
O69         O  0.04953410  0.19975218  0.50098735    -0.72500
O70         O  0.09111928  0.28839880  0.36021332    -0.71800
O71         O  0.01628534  0.16491742  0.44326160    -0.72300
O72         O  0.05244788  0.14997819  0.35494703    -0.72200
O73         O  0.11295726  0.15462401  0.35505113    -0.72000
C74         C  0.15163818  0.17459574  0.48869645     0.79800
C75         C  0.15356640  0.31735131  0.48410026     0.80300
C76         C  0.20277456  0.27314909  0.35186840     0.79200
C77         C  0.05399441  0.26523584  0.35430384     0.79600
C78         C  0.01740729  0.17435609  0.48275294     0.80700
C79         C  0.07720006  0.13828997  0.34166737     0.79800
Zn80       Zn  0.13788284  0.27810606  0.09765045     1.49700
Zn81       Zn  0.10730746  0.22139492  0.01492393     1.49400
Zn82       Zn  0.13310246  0.18982049  0.09992958     1.49100
Zn83       Zn  0.05305622  0.19725673  0.10104057     1.49500
O84         O  0.10744563  0.22152834  0.07819369    -1.81500
O85         O  0.16400910  0.31695875  0.04887545    -0.72100
O86         O  0.13757042  0.19231713  0.99324567    -0.71900
O87         O  0.17535274  0.22183101  0.14373934    -0.71400
O88         O  0.13631579  0.27892860  0.99087311    -0.72100
O89         O  0.18027664  0.28404583  0.14094985    -0.71700
O90         O  0.15871126  0.17373689  0.05228989    -0.72300
O91         O  0.04163535  0.14842940  0.14110252    -0.71700
O92         O  0.05062705  0.19293857  0.99120729    -0.72500
O93         O  0.09412898  0.13834097  0.12886839    -0.71800
O94         O  0.01350590  0.17599334  0.05049860    -0.72300
O95         O  0.04444771  0.24074170  0.13316199    -0.72200
O96         O  0.10170270  0.29724981  0.12493343    -0.72000
C97         C  0.15877523  0.31324694  0.00825448     0.79800
C98         C  0.15700900  0.17609194  0.01145931     0.80300
C99         C  0.19133901  0.25880335  0.15599769     0.79200
C100        C  0.06021469  0.12730755  0.14560240     0.79600
C101        C  0.01671470  0.17635668  0.00942787     0.80700
C102        C  0.06610287  0.27905905  0.13821883     0.79800
C103        C  0.98652076  0.99980133  0.29574640     0.48100
H104        H  0.98619424  0.99835383  0.33158630    -0.00900
C105        C  0.98723587  0.00332854  0.21175974     0.48200
H106        H  0.98673565  0.00437816  0.17597693    -0.00900
C107        C  0.01626786  0.31343312  0.26844377    -0.14600
C108        C  0.28418827  0.32282774  0.26609022    -0.14400
C109        C  0.01093998  0.04284491  0.27775908    -0.14700
C110        C  0.01776887  0.31552132  0.22438324    -0.14700
C111        C  0.28465753  0.32307696  0.22186499    -0.14300
C112        C  0.01161213  0.04520537  0.23348139    -0.14600
C113        C  0.04228919  0.08827286  0.16932173    -0.13800
C114        C  0.02761128  0.08451791  0.20929617    -0.29000
H115        H  0.04487639  0.06288927  0.15498783     0.15200
H116        H  0.02877972  0.11119610  0.22518626     0.15800
C117        C  0.22388947  0.27222183  0.18787896    -0.13800
C118        C  0.24923653  0.31161227  0.19440566    -0.29000
H119        H  0.22891658  0.24904588  0.20441293     0.15200
H120        H  0.24653408  0.33528627  0.17615565     0.15800
C121        C  0.03219190  0.29128346  0.19861299    -0.13800
C122        C  0.05017588  0.30341813  0.16055024    -0.29000
H123        H  0.02938612  0.26308165  0.21252949     0.15200
H124        H  0.05683932  0.33326899  0.14795337     0.15800
C125        C  0.24755933  0.31198375  0.29181902    -0.13800
C126        C  0.24079211  0.29022854  0.32828356    -0.29000
H127        H  0.22442155  0.31836058  0.27861770     0.15200
H128        H  0.26235978  0.28038703  0.33881893     0.15800
C129        C  0.02540002  0.07812753  0.30685416    -0.13800
C130        C  0.06395079  0.10471564  0.31037241    -0.29000
H131        H  0.00386750  0.08010864  0.32838232     0.15200
H132        H  0.08587338  0.10055469  0.29153190     0.15800
C133        C  0.02947552  0.28057821  0.33167323    -0.13800
C134        C  0.04086816  0.29934300  0.29372155    -0.29000
H135        H  0.00010432  0.27273887  0.34403266     0.15200
H136        H  0.06867016  0.30329957  0.27983056     0.15800
C137        C  0.29495200  0.04323896  0.66020865    -0.13800
C138        C  0.30423383  0.04912018  0.70235195    -0.29000
H139        H  0.30104837  0.02226669  0.64122391     0.15200
H140        H  0.29688846  0.07000574  0.72010690     0.15800
C141        C  0.11474584  0.05775296  0.69441151    -0.13800
C142        C  0.07836842  0.02664420  0.68799538    -0.29000
H143        H  0.12275482  0.07389150  0.72487795     0.15200
H144        H  0.07077089  0.01220518  0.65645295     0.16600
C145        C  0.29910424  0.25021852  0.70820628    -0.13800
C146        C  0.28718698  0.24673506  0.66687202    -0.29000
H147        H  0.29487750  0.22303961  0.72561108     0.15200
H148        H  0.29000126  0.27311152  0.64904315     0.15800
C149        C  0.28628103  0.03705446  0.82665147    -0.13800
C150        C  0.31552502  0.05485004  0.79801566    -0.29000
H151        H  0.27214904  0.00414096  0.83011328     0.15200
H152        H  0.32759563  0.08721269  0.79139153     0.15800
C153        C  0.09648633  0.05470452  0.82048401    -0.13800
C154        C  0.08794838  0.02819356  0.78815739    -0.29000
H155        H  0.07641738  0.06743076  0.82760075     0.15200
H156        H  0.10900424  0.01766414  0.77797668     0.15800
C157        C  0.31307525  0.25966404  0.80499389    -0.13800
C158        C  0.27472632  0.23303036  0.80955998    -0.29000
H159        H  0.33531567  0.25822762  0.82617240     0.15200
H160        H  0.25236193  0.23706496  0.79102959     0.15800
Zn161      Zn  0.27744635  0.46865818  0.88874705     1.49700
Zn162      Zn  0.19411131  0.47042440  0.89418702     1.49400
Zn163      Zn  0.19521701  0.38569184  0.89101213     1.49100
Zn164      Zn  0.22490507  0.44229011  0.97536386     1.49500
O165        O  0.22344347  0.44165856  0.91254511    -1.81500
O166        O  0.28386887  0.51584090  0.85056291    -0.72100
O167        O  0.14423541  0.43411200  0.86520620    -0.71900
O168        O  0.23129574  0.37175140  0.85602886    -0.71400
O169        O  0.22435114  0.51377340  0.85240196    -0.72100
O170        O  0.28856814  0.42879857  0.85318390    -0.71700
O171        O  0.14803174  0.37682778  0.85361872    -0.72300
O172        O  0.19786074  0.38452312  0.99884200    -0.71700
O173        O  0.17828954  0.49538641  0.94183600    -0.72500
O174        O  0.17467302  0.34577893  0.94019803    -0.71800
O175        O  0.19618087  0.47238915  0.99974789    -0.72300
O176        O  0.28188079  0.47214591  0.99605075    -0.72200
O177        O  0.31863119  0.49136808  0.93656143    -0.72000
C178        C  0.25973573  0.52921614  0.83889817     0.79800
C179        C  0.13055884  0.39884628  0.84908189     0.80300
C180        C  0.26702283  0.39138389  0.84344437     0.79200
C181        C  0.17837741  0.34971454  0.98100911     0.79600
C182        C  0.17990145  0.49227784  0.98240887     0.80700
C183        C  0.31552503  0.49033517  0.97751086     0.79800
Zn184      Zn  0.16684290  0.41818823  0.56732994     1.49700
Zn185      Zn  0.24765328  0.50068852  0.55745692     1.49400
Zn186      Zn  0.23378913  0.44924783  0.64333590     1.49100
Zn187      Zn  0.24988351  0.41599344  0.55410833     1.49500
O188        O  0.22420215  0.44558464  0.58068230    -1.81500
O189        O  0.15043366  0.45614208  0.53431051    -0.72100
O190        O  0.26411060  0.54219493  0.60453903    -0.71900
O191        O  0.18144983  0.42342732  0.67414854    -0.71400
O192        O  0.20889907  0.50937647  0.52066610    -0.72100
O193        O  0.13502095  0.39983703  0.62262191    -0.71700
O194        O  0.26169177  0.50792712  0.66429477    -0.72300
O195        O  0.27141930  0.39242630  0.59991012    -0.71700
O196        O  0.29625203  0.51345613  0.52223575    -0.72500
O197        O  0.26495990  0.41930547  0.66164085    -0.71800
O198        O  0.29712930  0.45384141  0.51849776    -0.72300
O199        O  0.21094519  0.36966505  0.51651749    -0.72200
O200        O  0.15266270  0.36840507  0.52939964    -0.72000
C201        C  0.17137126  0.49047881  0.51634822     0.79800
C202        C  0.26960586  0.54118995  0.64488720     0.80300
C203        C  0.14520159  0.40496412  0.66236387     0.79200
C204        C  0.27658735  0.39721152  0.64054874     0.79600
C205        C  0.31195225  0.49159205  0.50951290     0.80700
C206        C  0.17342596  0.35389531  0.51116258     0.79800
C207        C  0.00886825  0.33599784  0.78936666     0.48100
H208        H  0.01154772  0.33803139  0.82510187    -0.00900
C209        C  0.00203628  0.33050043  0.70599792     0.48200
H210        H  0.00562194  0.66644070  0.66966674    -0.00900
C211        C  0.33185049  0.36253333  0.77219829    -0.14600
C212        C  0.04860238  0.35004810  0.76583679    -0.14400
C213        C  0.32096567  0.62706530  0.77730325    -0.14700
C214        C  0.32527118  0.35927933  0.72846301    -0.14700
C215        C  0.04512113  0.34781916  0.72165758    -0.14300
C216        C  0.31478076  0.62373404  0.73346359    -0.14600
Zn217      Zn  0.14401108  0.53275365  0.39710134     1.49700
Zn218      Zn  0.10896899  0.55981179  0.47802104     1.49400
Zn219      Zn  0.13809641  0.61579584  0.39150976     1.49100
Zn220      Zn  0.05913970  0.52902416  0.39170540     1.49500
O221        O  0.11284527  0.55986791  0.41482631    -1.81500
O222        O  0.15793743  0.50835203  0.44796854    -0.72100
O223        O  0.13717126  0.61784358  0.50094957    -0.71900
O224        O  0.18736945  0.62669250  0.35572805    -0.71400
O225        O  0.13458306  0.52702380  0.50488590    -0.72100
O226        O  0.19545378  0.57213171  0.37043111    -0.71700
O227        O  0.15760954  0.65641016  0.44186217    -0.72300
O228        O  0.04319005  0.56607385  0.35974631    -0.71700
O229        O  0.05138150  0.53397016  0.49723181    -0.72500
O230        O  0.09800153  0.62548840  0.35466957    -0.71800
O231        O  0.01810662  0.50343715  0.43762544    -0.72300
O232        O  0.05481372  0.48490040  0.35139670    -0.72200
O233        O  0.11491970  0.48855925  0.35282019    -0.72000
C234        C  0.15282149  0.50884342  0.48840722     0.79800
C235        C  0.15514245  0.65261328  0.48286495     0.80300
C236        C  0.20755712  0.60708244  0.35344479     0.79200
C237        C  0.06114876  0.60269637  0.34674539     0.79600
C238        C  0.01910926  0.51082609  0.47770585     0.80700
C239        C  0.07933035  0.47265355  0.33876552     0.79800
Zn240      Zn  0.14628311  0.61546040  0.10060668     1.49700
Zn241      Zn  0.11452980  0.55936756  0.01634382     1.49400
Zn242      Zn  0.14426864  0.52895514  0.09912188     1.49100
Zn243      Zn  0.06228123  0.53466885  0.10387277     1.49500
O244        O  0.11637640  0.55942594  0.07972858    -1.81500
O245        O  0.16508739  0.65572912  0.05199404    -0.72100
O246        O  0.14397356  0.52979778  0.99224278    -0.71900
O247        O  0.19198093  0.56296929  0.13575285    -0.71400
O248        O  0.14136932  0.61766340  0.99305583    -0.72100
O249        O  0.19372608  0.62376391  0.13592680    -0.71700
O250        O  0.16433487  0.50914794  0.05028432    -0.72300
O251        O  0.05299786  0.48544513  0.14122981    -0.71700
O252        O  0.05703794  0.52977670  0.99484620    -0.72500
O253        O  0.10812643  0.47929441  0.13201459    -0.71800
O254        O  0.02106880  0.51347573  0.05493606    -0.72300
O255        O  0.05398501  0.57616666  0.14083459    -0.72200
O256        O  0.11340246  0.63053595  0.13903079    -0.72000
C257        C  0.16062408  0.65236143  0.01124974     0.79800
C258        C  0.16194132  0.51157841  0.00966583     0.80300
C259        C  0.20796703  0.60010858  0.14723651     0.79200
C260        C  0.07343246  0.46644963  0.14726620     0.79600
C261        C  0.02346796  0.51326491  0.01382656     0.80700
C262        C  0.07778234  0.61269948  0.15209359     0.79800
C263        C  0.99295723  0.33369762  0.28876079     0.48100
H264        H  0.99099764  0.33156718  0.32450103    -0.00900
C265        C  0.99807095  0.34010705  0.20497485     0.48200
H266        H  0.99964661  0.34254668  0.16924364    -0.00900
C267        C  0.02326684  0.65333290  0.26340820    -0.14600
C268        C  0.29062148  0.66106422  0.27079869    -0.14400
C269        C  0.01407300  0.37778286  0.27261581    -0.14700
C270        C  0.01584615  0.64906607  0.21978844    -0.14700
C271        C  0.29073492  0.66184408  0.22661528    -0.14300
C272        C  0.01718047  0.38138839  0.22861889    -0.14600
C273        C  0.05663321  0.42770459  0.17105382    -0.13800
C274        C  0.03351162  0.42090832  0.20563291    -0.29000
H275        H  0.06535788  0.40483164  0.16117403     0.15200
H276        H  0.02788428  0.44511345  0.21828567     0.15800
C277        C  0.24414635  0.61590857  0.17375303    -0.13800
C278        C  0.25453330  0.64794219  0.20004837    -0.29000
H279        H  0.26198399  0.59985707  0.17300862     0.15200
H280        H  0.23537278  0.66223761  0.20403048     0.15800
C281        C  0.02720290  0.62448193  0.19079952    -0.13800
C282        C  0.06521464  0.63575591  0.18161621    -0.29000
H283        H  0.00369098  0.59837831  0.17468385     0.15200
H284        H  0.08814036  0.66383217  0.19541841     0.15800
C285        C  0.25399125  0.64902085  0.29664287    -0.13800
C286        C  0.24602497  0.62427825  0.33080788    -0.29000
H287        H  0.23161276  0.65727789  0.28498987     0.15200
H288        H  0.26680956  0.61288912  0.33981521     0.15800
C289        C  0.02765454  0.41239435  0.30283394    -0.13800
C290        C  0.06618669  0.43922504  0.30712588    -0.29000
H291        H  0.00575070  0.41374701  0.32425144     0.15200
H292        H  0.08837735  0.43551774  0.28829783     0.15800
C293        C  0.03738528  0.61867883  0.32349207    -0.13800
C294        C  0.04913536  0.63929736  0.28643432    -0.29000
H295        H  0.00767926  0.61013404  0.33535459     0.15200
H296        H  0.07704690  0.64428885  0.27210722     0.15800
C297        C  0.29658861  0.37621998  0.66284731    -0.13800
C298        C  0.30522473  0.38044672  0.70531921    -0.29000
H299        H  0.30411428  0.35678146  0.64299356     0.15200
H300        H  0.29702427  0.40018381  0.72403565     0.15800
C301        C  0.11471135  0.39056536  0.69627957    -0.13800
C302        C  0.07778000  0.36050020  0.68956098    -0.29000
H303        H  0.12307293  0.40623492  0.72699934     0.15200
H304        H  0.06996664  0.34655357  0.65780152     0.16600
C305        C  0.29697746  0.58388331  0.71014592    -0.13800
C306        C  0.28533502  0.58004528  0.66868759    -0.29000
H307        H  0.29414570  0.55705296  0.72717772     0.15200
H308        H  0.28711262  0.60601374  0.65091565     0.15800
C309        C  0.28266257  0.36933226  0.81656560    -0.13800
C310        C  0.31960940  0.38637277  0.80095874    -0.29000
H311        H  0.26262363  0.33778230  0.80848211     0.15200
H312        H  0.34057849  0.41774580  0.80826691     0.15800
C313        C  0.09333967  0.38418876  0.82515598    -0.13800
C314        C  0.08552409  0.36078377  0.79018212    -0.29000
H315        H  0.07333801  0.39647357  0.83417366     0.15200
H316        H  0.10695355  0.35140032  0.77835977     0.15800
C317        C  0.30972958  0.59235729  0.80683162    -0.13800
C318        C  0.27216605  0.56328229  0.80879941    -0.29000
H319        H  0.33190736  0.59244334  0.82924081     0.15200
H320        H  0.24947032  0.56583109  0.78932231     0.15800
Zn321      Zn  0.27722548  0.80906742  0.89433497     1.49700
Zn322      Zn  0.19535502  0.81489431  0.90195355     1.49400
Zn323      Zn  0.19315786  0.72839289  0.89616049     1.49100
Zn324      Zn  0.22570952  0.78291594  0.98274930     1.49500
O325        O  0.22323841  0.78390966  0.91909991    -1.81500
O326        O  0.28658236  0.85953952  0.85944700    -0.72100
O327        O  0.14742597  0.78203607  0.86444828    -0.71900
O328        O  0.22632561  0.71450730  0.85628410    -0.71400
O329        O  0.23145362  0.86550219  0.86946446    -0.72100
O330        O  0.28546717  0.76921185  0.85484083    -0.71700
O331        O  0.14616603  0.72158772  0.86020528    -0.72300
O332        O  0.19791802  0.72407202  0.00353553    -0.71700
O333        O  0.17531205  0.83216335  0.95319721    -0.72500
O334        O  0.17373489  0.68676505  0.94406994    -0.71800
O335        O  0.19727498  0.81268511  0.01081951    -0.72300
O336        O  0.28368151  0.80964732  0.00292395    -0.72200
O337        O  0.31886372  0.82728405  0.94225524    -0.72000
C338        C  0.26609299  0.87854185  0.85382428     0.79800
C339        C  0.13185896  0.74560403  0.85054280     0.80300
C340        C  0.26180479  0.73296764  0.84274696     0.79200
C341        C  0.17833270  0.68965740  0.98487657     0.79600
C342        C  0.17811709  0.82989557  0.99388524     0.80700
C343        C  0.31699172  0.82569940  0.98335794     0.79800
Zn344      Zn  0.16845082  0.75334382  0.56744292     1.49700
Zn345      Zn  0.24933295  0.83485883  0.55364968     1.49400
Zn346      Zn  0.23566982  0.78678411  0.64155391     1.49100
Zn347      Zn  0.25084283  0.75018562  0.55480919     1.49500
O348        O  0.22564252  0.78085416  0.57934176    -1.81500
O349        O  0.15219519  0.79195607  0.53565763    -0.72100
O350        O  0.26818455  0.87827452  0.59852510    -0.71900
O351        O  0.18470327  0.76386047  0.67412547    -0.71400
O352        O  0.21042754  0.84360934  0.51757473    -0.72100
O353        O  0.13783724  0.73619946  0.62362345    -0.71700
O354        O  0.26537280  0.84535038  0.65938194    -0.72300
O355        O  0.26679595  0.72363018  0.60242897    -0.71700
O356        O  0.29719740  0.84559310  0.51867093    -0.72500
O357        O  0.26429362  0.75576693  0.66201672    -0.71800
O358        O  0.30150855  0.78774998  0.52308748    -0.72300
O359        O  0.21241765  0.70532300  0.51516601    -0.72200
O360        O  0.15387160  0.70303094  0.52943902    -0.72000
C361        C  0.17272086  0.82555364  0.51612552     0.79800
C362        C  0.27425036  0.87817970  0.63881861     0.80300
C363        C  0.14845828  0.74380102  0.66313124     0.79200
C364        C  0.27230218  0.73009035  0.64282752     0.79600
C365        C  0.31516368  0.82467975  0.51093799     0.80700
C366        C  0.17478735  0.68910094  0.51031172     0.79800
C367        C  0.01025608  0.66913935  0.78884999     0.48100
H368        H  0.01225250  0.67010238  0.82466380    -0.00900
C369        C  0.00588464  0.66669763  0.70515673     0.48200
H370        H  0.00099468  0.99375849  0.67022964    -0.00900
C371        C  0.32294379  0.69401373  0.77704233    -0.14600
C372        C  0.05101012  0.68781956  0.76673096    -0.14400
C373        C  0.32382146  0.96209137  0.77134932    -0.14700
C374        C  0.31651485  0.69106523  0.73315942    -0.14700
C375        C  0.04863440  0.68624271  0.72235112    -0.14300
C376        C  0.31983348  0.95979447  0.72730511    -0.14600
Zn377      Zn  0.13532178  0.85896312  0.39870209     1.49700
Zn378      Zn  0.10522549  0.89010250  0.47877638     1.49400
Zn379      Zn  0.13996776  0.94652577  0.39467565     1.49100
Zn380      Zn  0.05577998  0.86556508  0.38903167     1.49500
O381        O  0.10881763  0.89064718  0.41564929    -1.81500
O382        O  0.15814071  0.84324752  0.44856827    -0.72100
O383        O  0.13168847  0.94850274  0.50195761    -0.71900
O384        O  0.18491732  0.95148846  0.35540090    -0.71400
O385        O  0.13264067  0.85886532  0.50569087    -0.72100
O386        O  0.17884136  0.88884631  0.35726111    -0.71700
O387        O  0.16332210  0.98542965  0.44458383    -0.72300
O388        O  0.04687668  0.90747809  0.35520269    -0.71700
O389        O  0.04770433  0.86155492  0.49714723    -0.72500
O390        O  0.10409821  0.96430709  0.36174411    -0.71800
O391        O  0.01339089  0.84265993  0.43546355    -0.72300
O392        O  0.04800100  0.81854281  0.34944071    -0.72200
O393        O  0.09884276  0.80779256  0.36895656    -0.72000
C394        C  0.15311728  0.84324502  0.48895455     0.79800
C395        C  0.15529560  0.98241335  0.48465455     0.80300
C396        C  0.19578552  0.92517357  0.34349620     0.79200
C397        C  0.06832853  0.94539431  0.34814391     0.79600
C398        C  0.01490548  0.84385408  0.47656861     0.80700
C399        C  0.06673556  0.79747474  0.34817670     0.79800
Zn400      Zn  0.13056709  0.95321564  0.09820764     1.49700
Zn401      Zn  0.10663574  0.89151657  0.01917082     1.49400
Zn402      Zn  0.13949569  0.87215075  0.10789679     1.49100
Zn403      Zn  0.05216805  0.86744862  0.10411181     1.49500
O404        O  0.10696239  0.89562929  0.08231641    -1.81500
O405        O  0.15102527  0.98891788  0.04736262    -0.72100
O406        O  0.13725755  0.86176465  0.00167704    -0.71900
O407        O  0.18483356  0.91409570  0.14328499    -0.71400
O408        O  0.13479009  0.94734033  0.99092102    -0.72100
O409        O  0.17860573  0.97060983  0.13597975    -0.71700
O410        O  0.16263925  0.84983673  0.06172959    -0.72300
O411        O  0.04537999  0.82050945  0.14317721    -0.71700
O412        O  0.05022888  0.86095355  0.99531568    -0.72500
O413        O  0.10639074  0.82633698  0.14803105    -0.71800
O414        O  0.01258963  0.84390646  0.05410786    -0.72300
O415        O  0.03889707  0.90684407  0.13874196    -0.72200
O416        O  0.09169084  0.96688339  0.12812865    -0.72000
C417        C  0.15144900  0.98301791  0.00715634     0.79800
C418        C  0.15834417  0.84792552  0.02080650     0.80300
C419        C  0.19670118  0.95176727  0.15092357     0.79200
C420        C  0.06981267  0.80878887  0.15816638     0.79600
C421        C  0.01619110  0.84372456  0.01317114     0.80700
C422        C  0.05732107  0.94548185  0.14369522     0.79800
C423        C  0.00090638  0.67318226  0.28697061     0.48100
H424        H  0.00574870  0.67581752  0.32243022    -0.00900
C425        C  0.98806205  0.66606255  0.20412097     0.48200
H426        H  0.98255753  0.66293827  0.16871510    -0.00900
C427        C  0.00334199  0.97371346  0.27430515    -0.14600
C428        C  0.28784081  0.98255202  0.27403793    -0.14400
C429        C  0.01354359  0.71406892  0.26393223    -0.14700
C430        C  0.00336852  0.97508786  0.23016997    -0.14700
C431        C  0.28186622  0.97792918  0.23036405    -0.14300
C432        C  0.00696415  0.71031287  0.22022777    -0.14600
C433        C  0.05623898  0.77446957  0.18866511    -0.13800
C434        C  0.01845812  0.74510851  0.19028939    -0.29000
H435        H  0.07846024  0.77220725  0.20924592     0.15200
H436        H  0.99664167  0.74465126  0.16714462     0.15800
C437        C  0.23319198  0.97467863  0.17620553    -0.13800
C438        C  0.24239613  0.95765596  0.20956234    -0.29000
H439        H  0.25307813  0.00589036  0.16701576     0.15200
H440        H  0.22125122  0.92757979  0.22066967     0.15800
C441        C  0.01687519  0.95088687  0.20292943    -0.13800
C442        C  0.03927171  0.96695206  0.16796007    -0.29000
H443        H  0.01131348  0.92081635  0.21385036     0.15200
H444        H  0.04821127  0.99849107  0.15964174     0.15800
C445        C  0.25598211  0.97391292  0.30557826    -0.13800
C446        C  0.22815230  0.93569967  0.31244514    -0.29000
H447        H  0.25674672  0.99888505  0.32458380     0.15200
H448        H  0.23002330  0.91088418  0.29564157     0.15800
C449        C  0.02871090  0.75312281  0.28771056    -0.13800
C450        C  0.05142993  0.75970337  0.32295557    -0.29000
H451        H  0.02195015  0.77683709  0.27566603     0.15200
H452        H  0.06118971  0.73746239  0.33248218     0.15800
C453        C  0.05142691  0.96841364  0.32413547    -0.13800
C454        C  0.01870464  0.94985619  0.29939139    -0.29000
H455        H  0.06688764  0.00149553  0.32568294     0.15200
H456        H  0.00452931  0.91703512  0.29506053     0.15800
C457        C  0.28816145  0.70666115  0.66728793    -0.13800
C458        C  0.29847967  0.71350481  0.70923940    -0.29000
H459        H  0.29090918  0.68301215  0.64950152     0.15200
H460        H  0.29429825  0.73683502  0.72624787     0.15800
C461        C  0.11846612  0.72986992  0.69755107    -0.13800
C462        C  0.08162234  0.69994822  0.69076842    -0.29000
H463        H  0.12707758  0.74532889  0.72837173     0.15200
H464        H  0.07400926  0.68612986  0.65891857     0.16600
C465        C  0.30010488  0.92030408  0.70390597    -0.13800
C466        C  0.29209060  0.91747400  0.66146039    -0.29000
H467        H  0.29209016  0.89258052  0.72205490     0.15200
H468        H  0.29822293  0.94405711  0.64231260     0.15800
C469        C  0.27441762  0.71119674  0.81151980    -0.13800
C470        C  0.31227914  0.71880602  0.80673702    -0.29000
H471        H  0.25135217  0.68638754  0.79327798     0.15200
H472        H  0.33524769  0.74071802  0.82764936     0.15800
C473        C  0.09598030  0.73092037  0.82329804    -0.13800
C474        C  0.08797830  0.70275134  0.79246108    -0.29000
H475        H  0.07624002  0.74451548  0.82764659     0.15200
H476        H  0.10904861  0.69135865  0.78528023     0.15800
C477        C  0.31102577  0.92589564  0.79950505    -0.13800
C478        C  0.28215433  0.91661580  0.82852394    -0.29000
H479        H  0.32334541  0.90505105  0.79372188     0.15200
H480        H  0.26802790  0.93617525  0.83164181     0.15800
Zn481      Zn  0.61509860  0.13914019  0.89099205     1.49700
Zn482      Zn  0.53507438  0.14675001  0.89468196     1.49400
Zn483      Zn  0.53080544  0.05873695  0.88974654     1.49100
Zn484      Zn  0.55962873  0.11194519  0.97606336     1.49500
O485        O  0.56046620  0.11394613  0.91308773    -1.81500
O486        O  0.62629906  0.18933394  0.85493081    -0.72100
O487        O  0.49111174  0.11670365  0.85334987    -0.71900
O488        O  0.56689619  0.04250156  0.85744211    -0.71400
O489        O  0.57346842  0.19876358  0.86746000    -0.72100
O490        O  0.62521250  0.09839399  0.85537418    -0.71700
O491        O  0.48691747  0.05481356  0.84990478    -0.72300
O492        O  0.53135102  0.05325503  0.99636757    -0.71700
O493        O  0.50968466  0.16128070  0.94252141    -0.72500
O494        O  0.50623670  0.01685660  0.93664595    -0.71800
O495        O  0.52828561  0.13919505  0.00062025    -0.72300
O496        O  0.61615550  0.14094944  0.99976937    -0.72200
O497        O  0.65424001  0.15914556  0.94119192    -0.72000
C498        C  0.60768613  0.21045102  0.85141704     0.79800
C499        C  0.47465910  0.08040955  0.83934626     0.80300
C500        C  0.60304416  0.06099533  0.84594183     0.79200
C501        C  0.51038792  0.01929422  0.97745182     0.79600
C502        C  0.50977821  0.15670570  0.98301027     0.80700
C503        C  0.65032031  0.15818992  0.98209694     0.79800
Zn504      Zn  0.50161722  0.08554346  0.56419719     1.49700
Zn505      Zn  0.58218412  0.16888656  0.54874925     1.49400
Zn506      Zn  0.56979195  0.11995447  0.63674572     1.49100
Zn507      Zn  0.58432039  0.08470566  0.54850318     1.49500
O508        O  0.55920509  0.11471096  0.57462076    -1.81500
O509        O  0.48484691  0.11921419  0.52473612    -0.72100
O510        O  0.60143349  0.21232674  0.59455233    -0.71900
O511        O  0.51890729  0.09645884  0.67041648    -0.71400
O512        O  0.54163012  0.17515073  0.51173908    -0.72100
O513        O  0.47140638  0.07348472  0.62018927    -0.71700
O514        O  0.59981998  0.17834080  0.65433509    -0.72300
O515        O  0.60757541  0.06377146  0.59396126    -0.71700
O516        O  0.63045195  0.18013318  0.51286534    -0.72500
O517        O  0.60123184  0.09118092  0.65528658    -0.71800
O518        O  0.63022163  0.12002487  0.50980051    -0.72300
O519        O  0.54415217  0.03562986  0.51684245    -0.72200
O520        O  0.48563285  0.03093878  0.53568546    -0.72000
C521        C  0.50438011  0.15358175  0.50620769     0.79800
C522        C  0.60865241  0.21155215  0.63458184     0.80300
C523        C  0.48240622  0.07907346  0.65961302     0.79200
C524        C  0.61312130  0.06932936  0.63435507     0.79600
C525        C  0.64562622  0.15769482  0.50033905     0.80700
C526        C  0.50636302  0.01677254  0.51694988     0.79800
C527        C  0.34792200  0.00558317  0.78858997     0.48100
H528        H  0.35136359  0.00722300  0.82427955    -0.00900
C529        C  0.34043925  0.00172081  0.70504356     0.48200
H530        H  0.33725301  0.32939369  0.67152661    -0.00900
C531        C  0.66102892  0.03016357  0.76628354    -0.14600
C532        C  0.38751070  0.02180938  0.76436442    -0.14400
C533        C  0.66266465  0.29284495  0.76797469    -0.14700
C534        C  0.66032375  0.03163747  0.72213364    -0.14700
C535        C  0.38366580  0.02027149  0.72027926    -0.14300
C536        C  0.65959512  0.29133294  0.72384370    -0.14600
Zn537      Zn  0.46189012  0.18588905  0.38840979     1.49700
Zn538      Zn  0.43773587  0.21895653  0.47452869     1.49400
Zn539      Zn  0.46958467  0.27538166  0.39099380     1.49100
Zn540      Zn  0.38334450  0.19714797  0.39108018     1.49500
O541        O  0.43829828  0.21924063  0.41129177    -1.81500
O542        O  0.48395392  0.16604284  0.43789526    -0.72100
O543        O  0.46542394  0.27682097  0.49839141    -0.71900
O544        O  0.51410698  0.28132719  0.35145666    -0.71400
O545        O  0.46699665  0.18897215  0.49670627    -0.72100
O546        O  0.50678271  0.21828847  0.34740798    -0.71700
O547        O  0.49421005  0.31411215  0.44036297    -0.72300
O548        O  0.37600224  0.23783168  0.35456136    -0.71700
O549        O  0.38171689  0.19031266  0.49811369    -0.72500
O550        O  0.43434935  0.29365135  0.35830425    -0.71800
O551        O  0.34412509  0.18048282  0.43965916    -0.72300
O552        O  0.36729054  0.14622127  0.35675304    -0.72200
O553        O  0.42148573  0.13756052  0.35435408    -0.72000
C554        C  0.48357899  0.16987337  0.47876851     0.79800
C555        C  0.48820205  0.31080479  0.48078777     0.80300
C556        C  0.52454073  0.25566118  0.33662760     0.79200
C557        C  0.39838044  0.27504457  0.34544128     0.79600
C558        C  0.34783030  0.17780147  0.48012459     0.80700
C559        C  0.38515470  0.12621754  0.34482791     0.79800
Zn560      Zn  0.46899407  0.27740799  0.09865697     1.49700
Zn561      Zn  0.44122322  0.22061916  0.01417139     1.49400
Zn562      Zn  0.47213596  0.19369871  0.09793262     1.49100
Zn563      Zn  0.38749248  0.19253751  0.10083358     1.49500
O564        O  0.44189687  0.22106977  0.07767287    -1.81500
O565        O  0.49168093  0.31611807  0.04854693    -0.72100
O566        O  0.47057774  0.19069170  0.99174418    -0.71900
O567        O  0.52090249  0.23131879  0.12889510    -0.71400
O568        O  0.47045881  0.27798029  0.98936877    -0.72100
O569        O  0.51532404  0.28774974  0.13957881    -0.71700
O570        O  0.49085153  0.17093766  0.05047580    -0.72300
O571        O  0.38106197  0.14490534  0.14004009    -0.71700
O572        O  0.38430628  0.19260854  0.99160788    -0.72500
O573        O  0.44145445  0.14913778  0.13911238    -0.71800
O574        O  0.34743605  0.17102060  0.05092866    -0.72300
O575        O  0.37507331  0.23237753  0.13561218    -0.72200
O576        O  0.43006001  0.29141527  0.12873888    -0.72000
C577        C  0.48989299  0.31254179  0.00759823     0.79800
C578        C  0.48897485  0.17325146  0.00978402     0.80300
C579        C  0.53351710  0.26647646  0.14518231     0.79200
C580        C  0.40590787  0.13256652  0.15240958     0.79600
C581        C  0.35052985  0.17406593  0.00988423     0.80700
C582        C  0.39465556  0.27073350  0.14216025     0.79800
C583        C  0.33145746  0.99927273  0.28767817     0.48100
H584        H  0.33587249  0.00226512  0.32322336    -0.00900
C585        C  0.32028905  0.99181983  0.20450812     0.48200
H586        H  0.31545887  0.98851467  0.16901797    -0.00900
C587        C  0.33619878  0.30142849  0.26667619    -0.14600
C588        C  0.61985723  0.31894645  0.27339919    -0.14400
C589        C  0.35341761  0.03959653  0.26305065    -0.14700
C590        C  0.33614439  0.30095679  0.22247872    -0.14700
C591        C  0.61613233  0.31641863  0.22931598    -0.14300
C592        C  0.34685967  0.03580707  0.21926230    -0.14600
C593        C  0.39462033  0.09870042  0.18330305    -0.13800
C594        C  0.35705602  0.07046354  0.18933278    -0.29000
H595        H  0.41838538  0.09553370  0.19985504     0.15200
H596        H  0.33337862  0.07093267  0.16983201     0.15800
C597        C  0.57087644  0.28207094  0.16958345    -0.13800
C598        C  0.57831352  0.30441868  0.20554176    -0.29000
H599        H  0.59169070  0.27117102  0.15954219     0.15200
H600        H  0.55591201  0.31176286  0.21867619     0.15800
C601        C  0.34984730  0.27594256  0.19685065    -0.13800
C602        C  0.37650306  0.29280428  0.16525035    -0.29000
H603        H  0.34114982  0.24481692  0.20679349     0.15200
H604        H  0.38803469  0.32511113  0.15853071     0.15800
C605        C  0.58624795  0.30758544  0.30337621    -0.13800
C606        C  0.55757729  0.26889545  0.30574080    -0.29000
H607        H  0.58697392  0.33033803  0.32593505     0.15200
H608        H  0.55936241  0.24586023  0.28546049     0.15800
C609        C  0.37706133  0.07859609  0.28591299    -0.13800
C610        C  0.36230993  0.08839467  0.32050394    -0.29000
H611        H  0.40634164  0.09954161  0.27416122     0.15200
H612        H  0.33169791  0.06911520  0.32987528     0.15800
C613        C  0.38227059  0.29741272  0.31957996    -0.13800
C614        C  0.35080385  0.27808529  0.29335471    -0.29000
H615        H  0.39743680  0.33051807  0.32072139     0.15200
H616        H  0.33746153  0.24528034  0.28910421     0.15800
C617        C  0.63292385  0.04864980  0.65675945    -0.13800
C618        C  0.64457537  0.05604755  0.69817017    -0.29000
H619        H  0.63617213  0.02552332  0.63844408     0.15200
H620        H  0.64004587  0.07896818  0.71561775     0.15800
C621        C  0.45246429  0.06530505  0.69401889    -0.13800
C622        C  0.41605170  0.03411215  0.68792622    -0.29000
H623        H  0.46090499  0.08135061  0.72449754     0.15200
H624        H  0.40838559  0.01955226  0.65645485     0.16600
C625        C  0.64094305  0.25258551  0.69900870    -0.13800
C626        C  0.62768012  0.25031342  0.65827825    -0.29000
H627        H  0.63687930  0.22482898  0.71496608     0.15200
H628        H  0.63011759  0.27706471  0.64156678     0.15800
C629        C  0.61879518  0.03757846  0.82132569    -0.13800
C630        C  0.64953187  0.05522374  0.79442029    -0.29000
H631        H  0.60270979  0.00451712  0.82280330     0.15200
H632        H  0.66381014  0.08800805  0.78979235     0.15800
C633        C  0.43931237  0.06788018  0.81207748    -0.13800
C634        C  0.42500042  0.03431235  0.78785599    -0.29000
H635        H  0.42417462  0.08670147  0.81218566     0.15200
H636        H  0.44064752  0.01616677  0.78498902     0.15800
C637        C  0.65030598  0.25626828  0.79527535    -0.13800
C638        C  0.62522910  0.24933490  0.82795570    -0.29000
H639        H  0.65887017  0.23315161  0.78599224     0.15200
H640        H  0.61420631  0.27111333  0.83474996     0.15800
Zn641      Zn  0.61612333  0.47447337  0.90133996     1.49700
Zn642      Zn  0.53266914  0.47457254  0.90137874     1.49400
Zn643      Zn  0.53703267  0.38998392  0.89261565     1.49100
Zn644      Zn  0.55910709  0.44249569  0.98326729     1.49500
O645        O  0.56103693  0.44469383  0.91988502    -1.81500
O646        O  0.62454215  0.52252478  0.86467155    -0.72100
O647        O  0.48750197  0.44033996  0.86309663    -0.71900
O648        O  0.57919710  0.38013655  0.85952386    -0.71400
O649        O  0.56751560  0.52549765  0.86972994    -0.72100
O650        O  0.63365517  0.43912567  0.86840746    -0.71700
O651        O  0.49203449  0.38335212  0.85107049    -0.72300
O652        O  0.52852592  0.38369842  0.00102039    -0.71700
O653        O  0.50937517  0.49132490  0.94966205    -0.72500
O654        O  0.51194927  0.34708436  0.94025124    -0.71800
O655        O  0.52922438  0.47176122  0.00863496    -0.72300
O656        O  0.61530122  0.46773765  0.00898974    -0.72200
O657        O  0.65335563  0.49461961  0.95152177    -0.72000
C658        C  0.60292073  0.53968799  0.85632774     0.79800
C659        C  0.47507673  0.40582763  0.84507733     0.80300
C660        C  0.61639662  0.40296759  0.85386047     0.79200
C661        C  0.51116224  0.34961050  0.98136427     0.79600
C662        C  0.51050796  0.48879262  0.99038140     0.80700
C663        C  0.64940561  0.48836213  0.99191884     0.79800
Zn664      Zn  0.50080545  0.41171746  0.56141403     1.49700
Zn665      Zn  0.57965035  0.49582986  0.54907149     1.49400
Zn666      Zn  0.56838836  0.44481693  0.63429230     1.49100
Zn667      Zn  0.58505402  0.41278997  0.54552854     1.49500
O668        O  0.55819814  0.44092470  0.57234117    -1.81500
O669        O  0.48273858  0.44667324  0.52571142    -0.72100
O670        O  0.59790838  0.53701851  0.59621077    -0.71900
O671        O  0.51785589  0.42294156  0.66711962    -0.71400
O672        O  0.53893243  0.50369593  0.51505349    -0.72100
O673        O  0.47019742  0.39692980  0.61730836    -0.71700
O674        O  0.59950339  0.50239065  0.65414571    -0.72300
O675        O  0.60535221  0.38755429  0.59101609    -0.71700
O676        O  0.62753912  0.50997145  0.51219308    -0.72500
O677        O  0.59619243  0.41269976  0.65252420    -0.71800
O678        O  0.63304533  0.45265090  0.51117047    -0.72300
O679        O  0.54595252  0.36645007  0.50812395    -0.72200
O680        O  0.48690415  0.35976070  0.52843308    -0.72000
C681        C  0.50175412  0.48220705  0.50958458     0.79800
C682        C  0.60625076  0.53565319  0.63570228     0.80300
C683        C  0.48141718  0.40429277  0.65658082     0.79200
C684        C  0.60828494  0.39088492  0.63191836     0.79600
C685        C  0.64570259  0.49001401  0.50105709     0.80700
C686        C  0.50805809  0.34743102  0.50742489     0.79800
C687        C  0.35183711  0.33775856  0.78983014     0.48100
H688        H  0.35632418  0.34014861  0.82540192    -0.00900
C689        C  0.34038605  0.33149451  0.70690345     0.48200
H690        H  0.33087170  0.66379089  0.67534073    -0.00900
C691        C  0.65483969  0.35460646  0.76791656    -0.14600
C692        C  0.39027306  0.35199323  0.76412846    -0.14400
C693        C  0.65782125  0.61733182  0.76965524    -0.14700
C694        C  0.65333318  0.35413448  0.72365882    -0.14700
C695        C  0.38431103  0.34910954  0.72018600    -0.14300
C696        C  0.65381459  0.61499513  0.72570734    -0.14600
Zn697      Zn  0.46167095  0.51767688  0.39376297     1.49700
Zn698      Zn  0.43786858  0.55118020  0.47930059     1.49400
Zn699      Zn  0.47080846  0.60771654  0.39572547     1.49100
Zn700      Zn  0.38403799  0.53089912  0.39483342     1.49500
O701        O  0.43869545  0.55182051  0.41598553    -1.81500
O702        O  0.47951125  0.49437809  0.44288339    -0.72100
O703        O  0.46445386  0.60903586  0.50339548    -0.71900
O704        O  0.51617976  0.61277317  0.35766421    -0.71400
O705        O  0.46714126  0.52093601  0.50186707    -0.72100
O706        O  0.51101730  0.55045272  0.35845274    -0.71700
O707        O  0.49393708  0.64651261  0.44567693    -0.72300
O708        O  0.37746755  0.57255293  0.35842304    -0.71700
O709        O  0.38162196  0.52222477  0.50191296    -0.72500
O710        O  0.43693487  0.62685847  0.36219521    -0.71800
O711        O  0.34461130  0.51385629  0.44319189    -0.72300
O712        O  0.36788723  0.48021433  0.35997769    -0.72200
O713        O  0.42186674  0.47117071  0.35719714    -0.72000
C714        C  0.48098573  0.49940690  0.48356056     0.79800
C715        C  0.48702693  0.64318688  0.48597518     0.80300
C716        C  0.52872753  0.58756530  0.34672624     0.79200
C717        C  0.40095197  0.60954051  0.34937494     0.79600
C718        C  0.34795626  0.51032702  0.48359163     0.80700
C719        C  0.38559726  0.46016847  0.34762463     0.79800
Zn720      Zn  0.46948780  0.61161578  0.09647554     1.49700
Zn721      Zn  0.44162669  0.55415594  0.01357463     1.49400
Zn722      Zn  0.46202633  0.52152078  0.10220114     1.49100
Zn723      Zn  0.38401682  0.53283387  0.09572742     1.49500
O724        O  0.43931251  0.55509422  0.07679237    -1.81500
O725        O  0.49382505  0.65080695  0.04657878    -0.72100
O726        O  0.47275908  0.52450630  0.99612671    -0.71900
O727        O  0.50385829  0.55361863  0.14587266    -0.71400
O728        O  0.47034581  0.61174648  0.98832597    -0.72100
O729        O  0.51281870  0.61712447  0.13861438    -0.71700
O730        O  0.48793893  0.50242722  0.05687244    -0.72300
O731        O  0.36751907  0.48239791  0.13142469    -0.71700
O732        O  0.38579587  0.52441159  0.98765167    -0.72500
O733        O  0.42090729  0.47243670  0.13365746    -0.71800
O734        O  0.34699475  0.51367660  0.04483033    -0.72300
O735        O  0.37479515  0.57390133  0.13086288    -0.72200
O736        O  0.43349964  0.62924478  0.12790381    -0.72000
C737        C  0.49050185  0.64667519  0.00569948     0.79800
C738        C  0.48938905  0.50611583  0.01598193     0.80300
C739        C  0.52170376  0.59110512  0.15603126     0.79200
C740        C  0.38481268  0.46164213  0.14311163     0.79600
C741        C  0.35141738  0.51066166  0.00455301     0.80700
C742        C  0.39748013  0.61114170  0.14011611     0.79800
C743        C  0.32493066  0.33276979  0.28624625     0.48100
H744        H  0.32549332  0.33325447  0.32208110    -0.00900
C745        C  0.32501845  0.33238538  0.20221674     0.48200
H746        H  0.32488689  0.33222244  0.16635743    -0.00900
C747        C  0.34401740  0.64166054  0.26916231    -0.14600
C748        C  0.61276075  0.64668294  0.26669740    -0.14400
C749        C  0.35447715  0.37350594  0.26617666    -0.14700
C750        C  0.34401111  0.64275087  0.22501422    -0.14700
C751        C  0.61476825  0.65380888  0.22315066    -0.14300
C752        C  0.35452384  0.37325187  0.22209269    -0.14600
C753        C  0.36183774  0.42406699  0.16776129    -0.13800
C754        C  0.37904812  0.40941750  0.19578390    -0.29000
H755        H  0.32962761  0.40936925  0.16484105     0.15200
H756        H  0.41080406  0.42586466  0.20203190     0.15800
C757        C  0.55344525  0.60393713  0.18881243    -0.13800
C758        C  0.58019976  0.64295263  0.19441197    -0.29000
H759        H  0.55648096  0.58040333  0.20709737     0.15200
H760        H  0.57973262  0.66648833  0.17379909     0.15800
C761        C  0.35610805  0.61762405  0.19760332    -0.13800
C762        C  0.38224437  0.63449406  0.16555561    -0.29000
H763        H  0.34593501  0.58584451  0.20593958     0.15200
H764        H  0.39543021  0.66713723  0.16033667     0.15800
C765        C  0.57535077  0.63140367  0.29151912    -0.13800
C766        C  0.56527633  0.60165919  0.32086640    -0.29000
H767        H  0.55517436  0.64403737  0.28441162     0.15200
H768        H  0.58372749  0.58652649  0.32510228     0.15800
C769        C  0.37928035  0.40991407  0.29232750    -0.13800
C770        C  0.36263810  0.42287667  0.32243584    -0.29000
H771        H  0.41053765  0.42776241  0.28460684     0.15200
H772        H  0.33063149  0.40691577  0.32690589     0.15800
C773        C  0.38631191  0.63350828  0.32402261    -0.13800
C774        C  0.35722814  0.61631927  0.29460194    -0.29000
H775        H  0.40100820  0.66640272  0.32817299     0.15200
H776        H  0.34478515  0.58403521  0.28732987     0.15800
C777        C  0.62636606  0.36900033  0.65567676    -0.13800
C778        C  0.63259340  0.37318631  0.69859058    -0.29000
H779        H  0.63466877  0.34950452  0.63693086     0.15200
H780        H  0.62323148  0.39267929  0.71605483     0.15800
C781        C  0.45208768  0.39173881  0.69135119    -0.13800
C782        C  0.41521327  0.36129225  0.68642013    -0.29000
H783        H  0.46147229  0.40843697  0.72142686     0.15200
H784        H  0.40620871  0.34623920  0.65527829     0.16600
C785        C  0.63429623  0.57588333  0.70169939    -0.13800
C786        C  0.62408923  0.57396302  0.65992873    -0.29000
H787        H  0.62814133  0.54793718  0.71864364     0.15200
H788        H  0.62803860  0.60085175  0.64240565     0.15800
C789        C  0.64119800  0.38815976  0.83042243    -0.13800
C790        C  0.62841513  0.36530007  0.79471745    -0.29000
H791        H  0.67216856  0.40009584  0.83997388     0.15200
H792        H  0.59852016  0.35657401  0.78295573     0.15800
C793        C  0.43877062  0.39192266  0.81879101    -0.13800
C794        C  0.42871113  0.36474418  0.78673083    -0.29000
H795        H  0.41958407  0.40575597  0.82565433     0.15200
H796        H  0.44865302  0.35277645  0.77662273     0.15800
C797        C  0.64399289  0.58161596  0.79796611    -0.13800
C798        C  0.61881282  0.57661537  0.82998868    -0.29000
H799        H  0.65268499  0.55811549  0.79079739     0.15200
H800        H  0.60746291  0.59847631  0.83459859     0.15800
Zn801      Zn  0.61633595  0.79761235  0.88971920     1.49700
Zn802      Zn  0.53999919  0.81335972  0.88920101     1.49400
Zn803      Zn  0.52859782  0.72143612  0.88829818     1.49100
Zn804      Zn  0.56040742  0.77597734  0.97359516     1.49500
O805        O  0.56142026  0.77700454  0.91022428    -1.81500
O806        O  0.63246010  0.84865417  0.85391749    -0.72100
O807        O  0.49294356  0.78337508  0.85109864    -0.71900
O808        O  0.56079525  0.70411683  0.84968599    -0.71400
O809        O  0.58016675  0.86062566  0.85409063    -0.72100
O810        O  0.62231017  0.75520195  0.85237162    -0.71700
O811        O  0.48331446  0.71937663  0.85171949    -0.72300
O812        O  0.53086111  0.71787590  0.99616198    -0.71700
O813        O  0.51929281  0.83416942  0.93801466    -0.72500
O814        O  0.50613215  0.68000273  0.93728322    -0.71800
O815        O  0.53193837  0.80704339  0.99645752    -0.72300
O816        O  0.61659639  0.80262407  0.99781092    -0.72200
O817        O  0.65518307  0.81545774  0.94007818    -0.72000
C818        C  0.61561371  0.87011064  0.84282537     0.79800
C819        C  0.47348365  0.74645254  0.83952471     0.80300
C820        C  0.59713721  0.72007486  0.83865768     0.79200
C821        C  0.51024555  0.68334617  0.97821293     0.79600
C822        C  0.51739430  0.82835185  0.97859993     0.80700
C823        C  0.65089640  0.81679432  0.98072554     0.79800
Zn824      Zn  0.50009948  0.74465672  0.56795544     1.49700
Zn825      Zn  0.58197295  0.82847223  0.56882390     1.49400
Zn826      Zn  0.56301460  0.76632462  0.64489998     1.49100
Zn827      Zn  0.58252394  0.74246672  0.55378560     1.49500
O828        O  0.55665734  0.77051023  0.58330831    -1.81500
O829        O  0.48791773  0.78384931  0.53148986    -0.72100
O830        O  0.59798051  0.86432138  0.62260078    -0.71900
O831        O  0.51114926  0.73680000  0.67309102    -0.71400
O832        O  0.54504020  0.84147191  0.53109511    -0.72100
O833        O  0.46617686  0.72746326  0.62210292    -0.71700
O834        O  0.59123678  0.81992742  0.67414886    -0.72300
O835        O  0.60417818  0.71598367  0.59595096    -0.71700
O836        O  0.63235062  0.84248956  0.53570279    -0.72500
O837        O  0.59251711  0.73611052  0.65915576    -0.71800
O838        O  0.62911522  0.78228651  0.51968417    -0.72300
O839        O  0.54423482  0.69754890  0.51532943    -0.72200
O840        O  0.48549097  0.69300273  0.53286816    -0.72000
C841        C  0.50883003  0.82070740  0.51942614     0.79800
C842        C  0.60181995  0.85612014  0.66182453     0.80300
C843        C  0.47544531  0.72437428  0.66112299     0.79200
C844        C  0.60655771  0.71714766  0.63687604     0.79600
C845        C  0.64621793  0.82098434  0.51747127     0.80700
C846        C  0.50648700  0.67974803  0.51290825     0.79800
C847        C  0.34488126  0.67074542  0.79365490     0.48100
H848        H  0.34970343  0.67285834  0.82919123    -0.00900
C849        C  0.33361118  0.66544117  0.71072778     0.48200
H850        H  0.33894483  0.00084948  0.66960917    -0.00900
C851        C  0.65872723  0.68360385  0.76974049    -0.14600
C852        C  0.38324072  0.68724899  0.76791403    -0.14400
C853        C  0.64644055  0.95853634  0.76258179    -0.14700
C854        C  0.65419329  0.68133549  0.72565799    -0.14700
C855        C  0.37751684  0.68509106  0.72391062    -0.14300
C856        C  0.64649360  0.96044482  0.71824555    -0.14600
Zn857      Zn  0.47237683  0.85871427  0.39949122     1.49700
Zn858      Zn  0.44243365  0.88689374  0.48546331     1.49400
Zn859      Zn  0.47228372  0.94475856  0.40225292     1.49100
Zn860      Zn  0.39026066  0.86623134  0.39950216     1.49500
O861        O  0.44464224  0.88872948  0.42192886    -1.81500
O862        O  0.49263030  0.83765348  0.45054541    -0.72100
O863        O  0.46703676  0.94490410  0.51032651    -0.71900
O864        O  0.52067794  0.95532054  0.36874255    -0.71400
O865        O  0.47299466  0.85817906  0.50913826    -0.72100
O866        O  0.52054504  0.89552795  0.36128227    -0.71700
O867        O  0.49152886  0.98259988  0.45143202    -0.72300
O868        O  0.38129320  0.90441142  0.35901123    -0.71700
O869        O  0.38526823  0.85472963  0.50594988    -0.72500
O870        O  0.43781209  0.96145607  0.36646681    -0.71800
O871        O  0.35006168  0.84969064  0.44653681    -0.72300
O872        O  0.37649490  0.81437600  0.36939984    -0.72200
O873        O  0.43271285  0.80930555  0.36520485    -0.72000
C874        C  0.49059691  0.83989204  0.49153229     0.79800
C875        C  0.48679736  0.97931118  0.49190034     0.80300
C876        C  0.53616726  0.93389142  0.35427873     0.79200
C877        C  0.40292051  0.94206116  0.35099598     0.79600
C878        C  0.35213447  0.84381106  0.48662099     0.80700
C879        C  0.39556501  0.79558613  0.35772611     0.79800
Zn880      Zn  0.47085347  0.94688676  0.09315716     1.49700
Zn881      Zn  0.44536698  0.88941946  0.01050829     1.49400
Zn882      Zn  0.47818521  0.86407024  0.09509034     1.49100
Zn883      Zn  0.39279602  0.86224958  0.09879722     1.49500
O884        O  0.44653199  0.89029688  0.07404569    -1.81500
O885        O  0.49212388  0.98601567  0.04443241    -0.72100
O886        O  0.47600016  0.86036634  0.98746641    -0.71900
O887        O  0.52303784  0.90192574  0.13422859    -0.71400
O888        O  0.47278183  0.94725367  0.98571953    -0.72100
O889        O  0.51761897  0.95923732  0.13105113    -0.71700
O890        O  0.50169454  0.84670506  0.04620582    -0.72300
O891        O  0.38635312  0.81355713  0.13503480    -0.71700
O892        O  0.38762868  0.86052634  0.98950784    -0.72500
O893        O  0.44425092  0.81266296  0.12738333    -0.71800
O894        O  0.35217100  0.84163690  0.05003090    -0.72300
O895        O  0.37974452  0.90035881  0.13550868    -0.72200
O896        O  0.43243891  0.96031587  0.12504851    -0.72000
C897        C  0.49062422  0.98217689  0.00370693     0.79800
C898        C  0.49742485  0.84620615  0.00542906     0.80300
C899        C  0.53506235  0.93914770  0.14441834     0.79200
C900        C  0.40897974  0.79710697  0.14165197     0.79600
C901        C  0.35425099  0.84340199  0.00893121     0.80700
C902        C  0.39813346  0.93889166  0.14079894     0.79800
C903        C  0.33165276  0.67151531  0.29043460     0.48100
H904        H  0.33202834  0.67049003  0.32623574    -0.00900
C905        C  0.33141157  0.67359301  0.20639189     0.48200
H906        H  0.33092065  0.67438409  0.17055735    -0.00900
C907        C  0.34499433  0.97003188  0.26694028    -0.14600
C908        C  0.61927017  0.96742514  0.26939351    -0.14400
C909        C  0.35990210  0.71333907  0.27141221    -0.14700
C910        C  0.33958833  0.96651894  0.22311948    -0.14700
C911        C  0.61957994  0.96683363  0.22526672    -0.14300
C912        C  0.35912139  0.71468437  0.22734385    -0.14600
C913        C  0.39400213  0.75850647  0.16553249    -0.13800
C914        C  0.37551168  0.75360805  0.20323919    -0.29000
H915        H  0.40013685  0.73460155  0.15311312     0.15200
H916        H  0.37281528  0.77908411  0.21735906     0.15800
C917        C  0.57075189  0.96083564  0.17118591    -0.13800
C918        C  0.58423208  0.94206730  0.19862227    -0.29000
H919        H  0.58572157  0.99393462  0.16956171     0.15200
H920        H  0.56800892  0.90937431  0.20358776     0.15800
C921        C  0.35260113  0.94205136  0.19589141    -0.13800
C922        C  0.37996747  0.96018965  0.16527227    -0.29000
H923        H  0.34307676  0.91036564  0.20409082     0.15200
H924        H  0.39174278  0.99280085  0.16025571     0.15800
C925        C  0.58357732  0.94105210  0.29553711    -0.13800
C926        C  0.57381322  0.95587348  0.33035355    -0.29000
H927        H  0.56328871  0.91079175  0.28386193     0.15200
H928        H  0.59222375  0.98759531  0.33906798     0.15800
C929        C  0.38568007  0.74912984  0.29794149    -0.13800
C930        C  0.37300424  0.75685786  0.33511875    -0.29000
H931        H  0.41391171  0.77138903  0.28478774     0.15200
H932        H  0.34297386  0.73706739  0.34594778     0.15800
C933        C  0.38734656  0.96458031  0.32434354    -0.13800
C934        C  0.36094576  0.94684870  0.29243996    -0.29000
H935        H  0.39906025  0.99706634  0.33008431     0.15200
H936        H  0.35180473  0.91526578  0.28404319     0.15800
C937        C  0.62602844  0.69615130  0.65910213    -0.13800
C938        C  0.63448016  0.70164909  0.70153800    -0.29000
H939        H  0.63314507  0.67605387  0.63969539     0.15200
H940        H  0.62642093  0.72194638  0.71954908     0.15800
C941        C  0.44503755  0.70581988  0.69434167    -0.13800
C942        C  0.40831821  0.70162142  0.68990261    -0.29000
H943        H  0.45405602  0.69593969  0.72323348     0.15200
H944        H  0.39981299  0.71017920  0.65952493     0.16600
C945        C  0.62465003  0.92644723  0.68765059    -0.13800
C946        C  0.61954321  0.88860452  0.69440372    -0.29000
H947        H  0.61623462  0.93401987  0.65666849     0.15200
H948        H  0.62969071  0.88107703  0.72425879     0.15800
C949        C  0.60937911  0.69686106  0.80865179    -0.13800
C950        C  0.64743255  0.70838713  0.79869342    -0.29000
H951        H  0.58633057  0.66902092  0.79456890     0.15200
H952        H  0.67109001  0.73479453  0.81421180     0.15800
C953        C  0.43830619  0.73531232  0.81198244    -0.13800
C954        C  0.42111423  0.69994137  0.79082238    -0.29000
H955        H  0.42604524  0.75661276  0.80908374     0.15200
H956        H  0.43298048  0.67831227  0.79316587     0.15800
C957        C  0.62173615  0.92167741  0.78828072    -0.13800
C958        C  0.63860878  0.90733464  0.81727242    -0.29000
H959        H  0.59012433  0.90491957  0.78133003     0.15200
H960        H  0.67076697  0.92233801  0.82077618     0.15800
Zn961      Zn  0.94210464  0.13573534  0.89189509     1.49700
Zn962      Zn  0.85750353  0.13631495  0.89610556     1.49400
Zn963      Zn  0.85993300  0.05228732  0.89523607     1.49100
Zn964      Zn  0.88954803  0.11004491  0.97920108     1.49500
O965        O  0.88790351  0.10874747  0.91576962    -1.81500
O966        O  0.94791148  0.18247493  0.85171569    -0.72100
O967        O  0.80671173  0.09797999  0.86756237    -0.71900
O968        O  0.89712469  0.03666240  0.86378900    -0.71400
O969        O  0.88784096  0.17927217  0.85260562    -0.72100
O970        O  0.95339709  0.09442077  0.85745951    -0.71700
O971        O  0.81350782  0.04239365  0.85560536    -0.72300
O972        O  0.86017302  0.05281463  0.00390032    -0.71700
O973        O  0.84214671  0.16193636  0.94429535    -0.72500
O974        O  0.83742542  0.01392255  0.94534545    -0.71800
O975        O  0.86181838  0.14112257  0.00267336    -0.72300
O976        O  0.94663010  0.13845580  0.00107787    -0.72200
O977        O  0.98297980  0.15877214  0.94132956    -0.72000
C978        C  0.92330067  0.19498219  0.83889524     0.79800
C979        C  0.79452123  0.06293314  0.85090948     0.80300
C980        C  0.93263900  0.05622660  0.85034167     0.79200
C981        C  0.84016737  0.01806944  0.98618980     0.79600
C982        C  0.84464393  0.15994080  0.98502541     0.80700
C983        C  0.98024069  0.15688953  0.98247792     0.79800
Zn984      Zn  0.83502680  0.08258612  0.56800840     1.49700
Zn985      Zn  0.91577397  0.16540308  0.55430358     1.49400
Zn986      Zn  0.90302122  0.11596611  0.64087192     1.49100
Zn987      Zn  0.91705480  0.08098166  0.55110028     1.49500
O988        O  0.89238185  0.11095020  0.57865169    -1.81500
O989        O  0.81799423  0.11931787  0.53402559    -0.72100
O990        O  0.93203247  0.20767427  0.60031330    -0.71900
O991        O  0.85243658  0.08999209  0.67484416    -0.71400
O992        O  0.87590755  0.17246115  0.51746891    -0.72100
O993        O  0.80525393  0.06624708  0.62436135    -0.71700
O994        O  0.93071473  0.17440164  0.66045608    -0.72300
O995        O  0.93781736  0.05721164  0.59674346    -0.71700
O996        O  0.96553940  0.17804952  0.52078555    -0.72500
O997        O  0.93448642  0.08710985  0.65777859    -0.71800
O998        O  0.96436501  0.11763464  0.51495882    -0.72300
O999        O  0.87767319  0.03444498  0.51463707    -0.72200
O1000       O  0.81951124  0.03081775  0.53311054    -0.72000
C1001       C  0.83821387  0.15312137  0.51472333     0.79800
C1002       C  0.93798233  0.20721376  0.64060346     0.80300
C1003       C  0.81604483  0.07125892  0.66388765     0.79200
C1004       C  0.94414434  0.06335157  0.63706943     0.79600
C1005       C  0.98058714  0.15572425  0.50751682     0.80700
C1006       C  0.83987453  0.01701335  0.51285083     0.79800
C1007       C  0.67413378  0.99945986  0.78417224     0.48100
H1008       H  0.67387132  0.99790535  0.81998631    -0.00900
C1009       C  0.67386656  0.00271883  0.70051210     0.48200
H1010       H  0.67581600  0.33316552  0.66746338    -0.00900
C1011       C  0.99120830  0.02476052  0.77088767    -0.14600
C1012       C  0.71520560  0.01232515  0.76408568    -0.14400
C1013       C  0.98383839  0.29238001  0.77344143    -0.14700
C1014       C  0.98692678  0.02258773  0.72684887    -0.14700
C1015       C  0.71491917  0.01394911  0.71974927    -0.14300
C1016       C  0.97988395  0.28909181  0.72931668    -0.14600
Zn1017     Zn  0.80320532  0.18754826  0.39548386     1.49700
Zn1018     Zn  0.77339311  0.22023386  0.47739785     1.49400
Zn1019     Zn  0.80854000  0.27573497  0.39325249     1.49100
Zn1020     Zn  0.72332543  0.19533398  0.38875265     1.49500
O1021       O  0.77709976  0.21972668  0.41402094    -1.81500
O1022       O  0.82141425  0.16774604  0.44655384    -0.72100
O1023       O  0.80054478  0.27897041  0.50100199    -0.71900
O1024       O  0.85439009  0.28158129  0.35525539    -0.71400
O1025       O  0.80050447  0.18870812  0.50379514    -0.72100
O1026       O  0.85233328  0.22071141  0.35999811    -0.71700
O1027       O  0.83126182  0.31533355  0.44312575    -0.72300
O1028       O  0.71590701  0.23671765  0.35338224    -0.71700
O1029       O  0.71561254  0.19252797  0.49615539    -0.72500
O1030       O  0.77359532  0.29314854  0.35899144    -0.71800
O1031       O  0.68098852  0.17498826  0.43473226    -0.72300
O1032       O  0.71203012  0.14668806  0.35122334    -0.72200
O1033       O  0.76581560  0.13821826  0.36112239    -0.72000
C1034       C  0.81833006  0.17018402  0.48708948     0.79800
C1035       C  0.82381342  0.31284575  0.48334064     0.80300
C1036       C  0.86852974  0.25723832  0.34631533     0.79200
C1037       C  0.73792132  0.27427325  0.34530707     0.79600
C1038       C  0.68262782  0.17605683  0.47573352     0.80700
C1039       C  0.73126100  0.12664637  0.34519975     0.79800
Zn1040     Zn  0.80507754  0.27742991  0.10266623     1.49700
Zn1041     Zn  0.77667425  0.22419016  0.01711615     1.49400
Zn1042     Zn  0.80066924  0.18918353  0.10131224     1.49100
Zn1043     Zn  0.72052014  0.19548529  0.10113528     1.49500
O1044       O  0.77559947  0.22170349  0.08032290    -1.81500
O1045       O  0.83012346  0.31928678  0.05530915    -0.72100
O1046       O  0.80727242  0.19579251  0.99436631    -0.71900
O1047       O  0.84208028  0.21928980  0.14665721    -0.71400
O1048       O  0.80518352  0.28296146  0.99560112    -0.72100
O1049       O  0.84846535  0.28210984  0.14414927    -0.71700
O1050       O  0.82661999  0.17465009  0.05296949    -0.72300
O1051       O  0.70781228  0.14539379  0.13804041    -0.71700
O1052       O  0.72039873  0.19524893  0.99231096    -0.72500
O1053       O  0.76126860  0.13662239  0.12826275    -0.71800
O1054       O  0.68204255  0.17599450  0.05057235    -0.72300
O1055       O  0.71006364  0.23541339  0.13605476    -0.72200
O1056       O  0.76751270  0.29252568  0.13429785    -0.72000
C1057       C  0.82611822  0.31698164  0.01443259     0.79800
C1058       C  0.82562005  0.17820893  0.01221425     0.80300
C1059       C  0.85875394  0.25621229  0.15906017     0.79200
C1060       C  0.72652945  0.12460090  0.14317626     0.79600
C1061       C  0.68614739  0.17753555  0.00971349     0.80700
C1062       C  0.73134050  0.27283190  0.14567513     0.79800
C1063       C  0.65883688  0.99964852  0.28892510     0.48100
H1064       H  0.65893799  0.00114057  0.32466931    -0.00900
C1065       C  0.65892359  0.99790063  0.20511162     0.48200
H1066       H  0.65875087  0.99714968  0.16926686    -0.00900
C1067       C  0.67385008  0.30089986  0.26939447    -0.14600
C1068       C  0.95236468  0.31499317  0.26564580    -0.14400
C1069       C  0.66700860  0.04038453  0.26785848    -0.14700
C1070       C  0.67042331  0.29870272  0.22545955    -0.14700
C1071       C  0.95522832  0.31895298  0.22159111    -0.14300
C1072       C  0.66695651  0.03952674  0.22370932    -0.14600
C1073       C  0.70836165  0.08558589  0.16680299    -0.13800
C1074       C  0.68018536  0.07672823  0.19678366    -0.29000
H1075       H  0.72100177  0.06485909  0.16194319     0.15200
H1076       H  0.66998296  0.09890020  0.20479244     0.15800
C1077       C  0.89089199  0.26893587  0.19136020    -0.13800
C1078       C  0.92116265  0.30676342  0.19163341    -0.29000
H1079       H  0.89124449  0.24617472  0.21333576     0.15200
H1080       H  0.92303470  0.32824798  0.16670686     0.15800
C1081       C  0.68452159  0.27516104  0.19865168    -0.13800
C1082       C  0.71397675  0.29442772  0.17047342    -0.29000
H1083       H  0.67342949  0.24286277  0.20494959     0.15200
H1084       H  0.72740238  0.32740087  0.16765163     0.15800
C1085       C  0.91440496  0.29958123  0.28948481    -0.13800
C1086       C  0.90532343  0.27171357  0.32083013    -0.29000
H1087       H  0.89326356  0.31042575  0.28022953     0.15200
H1088       H  0.92500523  0.25832578  0.32720276     0.15800
C1089       C  0.68235870  0.07861857  0.29310678    -0.13800
C1090       C  0.71324487  0.08850339  0.32017934    -0.29000
H1091       H  0.67050727  0.09984900  0.28699524     0.15200
H1092       H  0.72673440  0.06829163  0.32314503     0.15800
C1093       C  0.72162307  0.29688666  0.32010049    -0.13800
C1094       C  0.68954560  0.27773546  0.29475263    -0.29000
H1095       H  0.73678082  0.32998002  0.32146875     0.15200
H1096       H  0.67606956  0.24493405  0.29034428     0.15800
C1097       C  0.96260762  0.04154281  0.65989744    -0.13800
C1098       C  0.96946389  0.04530060  0.70262483    -0.29000
H1099       H  0.96937769  0.02129765  0.64059337     0.15200
H1100       H  0.96142684  0.06550646  0.72064084     0.15800
C1101       C  0.78579745  0.05590579  0.69808104    -0.13800
C1102       C  0.74903122  0.02617231  0.69001205    -0.29000
H1103       H  0.79363024  0.07068866  0.72934328     0.15200
H1104       H  0.74205838  0.01308048  0.65781213     0.16600
C1105       C  0.96225644  0.24933946  0.70626954    -0.13800
C1106       C  0.95343422  0.24604488  0.66399974    -0.29000
H1107       H  0.95715107  0.22217550  0.72419186     0.15200
H1108       H  0.95684101  0.27220541  0.64541227     0.15800
C1109       C  0.94911897  0.03296685  0.82612234    -0.13800
C1110       C  0.97960852  0.05023659  0.79866937    -0.29000
H1111       H  0.93362953  0.99992966  0.82848693     0.15200
H1112       H  0.99355111  0.08289823  0.79323333     0.15800
C1113       C  0.75745371  0.04671590  0.82579957    -0.13800
C1114       C  0.75086553  0.02281917  0.79114132    -0.29000
H1115       H  0.73661187  0.05832281  0.83344039     0.15200
H1116       H  0.77318590  0.01416827  0.78064053     0.15800
C1117       C  0.97259369  0.25770644  0.80369272    -0.13800
C1118       C  0.93514340  0.22822137  0.80705371    -0.29000
H1119       H  0.99512889  0.25846123  0.82599987     0.15200
H1120       H  0.91202771  0.22990803  0.78755114     0.15800
Zn1121     Zn  0.94800455  0.47403969  0.89703715     1.49700
Zn1122     Zn  0.86579648  0.47887772  0.90323439     1.49400
Zn1123     Zn  0.86378998  0.39233310  0.89853210     1.49100
Zn1124     Zn  0.89551268  0.44731310  0.98490456     1.49500
O1125       O  0.89367452  0.44809939  0.92113959    -1.81500
O1126       O  0.95717262  0.52406252  0.86079140    -0.72100
O1127       O  0.81831782  0.44583965  0.86568881    -0.71900
O1128       O  0.90028862  0.37641381  0.86588555    -0.71400
O1129       O  0.90202576  0.52977871  0.87164257    -0.72100
O1130       O  0.95762865  0.43315660  0.86015004    -0.71700
O1131       O  0.81802612  0.38597869  0.85851343    -0.72300
O1132       O  0.86724944  0.38856840  0.00696639    -0.71700
O1133       O  0.84490888  0.49641986  0.95323368    -0.72500
O1134       O  0.84113805  0.35193040  0.94750887    -0.71800
O1135       O  0.86674916  0.47702518  0.01098040    -0.72300
O1136       O  0.95300010  0.47612649  0.00656545    -0.72200
O1137       O  0.98888831  0.49448958  0.94642104    -0.72000
C1138       C  0.93659830  0.54308585  0.85583763     0.79800
C1139       C  0.80322402  0.40999533  0.85024384     0.80300
C1140       C  0.93584336  0.39527160  0.85235458     0.79200
C1141       C  0.84594437  0.35447594  0.98833145     0.79600
C1142       C  0.84776948  0.49428696  0.99386277     0.80700
C1143       C  0.98652851  0.49352946  0.98757009     0.79800
Zn1144     Zn  0.83685166  0.41706924  0.56197164     1.49700
Zn1145     Zn  0.91693794  0.50204716  0.54834630     1.49400
Zn1146     Zn  0.90534874  0.45309363  0.63496054     1.49100
Zn1147     Zn  0.91974181  0.41719487  0.54643650     1.49500
O1148       O  0.89431434  0.44719318  0.57279877    -1.81500
O1149       O  0.81974829  0.45195809  0.52403219    -0.72100
O1150       O  0.93475312  0.54522418  0.59452168    -0.71900
O1151       O  0.85498859  0.43035815  0.66886341    -0.71400
O1152       O  0.87618130  0.50847036  0.51140108    -0.72100
O1153       O  0.80709454  0.40453929  0.61921589    -0.71700
O1154       O  0.93504975  0.51157214  0.65373137    -0.72300
O1155       O  0.94138878  0.39440780  0.59264094    -0.71700
O1156       O  0.96633452  0.51412437  0.51418286    -0.72500
O1157       O  0.93524905  0.42286717  0.65337423    -0.71800
O1158       O  0.96668223  0.45421506  0.51039312    -0.72300
O1159       O  0.88104787  0.36960874  0.51026802    -0.72200
O1160       O  0.82213803  0.36310984  0.53016410    -0.72000
C1161       C  0.83886245  0.48679350  0.50616145     0.79800
C1162       C  0.94223028  0.54463089  0.63448381     0.80300
C1163       C  0.81843756  0.41195582  0.65859562     0.79200
C1164       C  0.94634119  0.39996599  0.63319493     0.79600
C1165       C  0.98207176  0.49207688  0.50194160     0.80700
C1166       C  0.84322759  0.35025851  0.50960931     0.79800
C1167       C  0.68078738  0.33621780  0.78670918     0.48100
H1168       H  0.68251934  0.33680849  0.82252483    -0.00900
C1169       C  0.67634212  0.33366254  0.70300777     0.48200
H1170       H  0.67175611  0.65629038  0.66849344    -0.00900
C1171       C  0.99007427  0.36133503  0.76980896    -0.14600
C1172       C  0.72165207  0.35819579  0.76437780    -0.14400
C1173       C  0.98845472  0.62565818  0.77032934    -0.14700
C1174       C  0.98645778  0.35862977  0.72569248    -0.14700
C1175       C  0.71901768  0.35652100  0.71995868    -0.14300
C1176       C  0.98576010  0.62424995  0.72610368    -0.14600
Zn1177     Zn  0.79527857  0.51826686  0.38887374     1.49700
Zn1178     Zn  0.77260532  0.55321990  0.47299849     1.49400
Zn1179     Zn  0.80698101  0.60985592  0.38916163     1.49100
Zn1180     Zn  0.71924313  0.53439694  0.38786160     1.49500
O1181       O  0.77370562  0.55410681  0.40973198    -1.81500
O1182       O  0.81568209  0.49697640  0.43844399    -0.72100
O1183       O  0.79876515  0.61137928  0.49699246    -0.71900
O1184       O  0.85307563  0.61295827  0.35357724    -0.71400
O1185       O  0.80321003  0.52446831  0.49649536    -0.72100
O1186       O  0.84165630  0.54846940  0.34954380    -0.71700
O1187       O  0.82949476  0.64886319  0.43960656    -0.72300
O1188       O  0.71397183  0.57589633  0.34960634    -0.71700
O1189       O  0.71569172  0.52184118  0.49428496    -0.72500
O1190       O  0.77436366  0.62891427  0.35128457    -0.71800
O1191       O  0.67923815  0.51692552  0.43588314    -0.72300
O1192       O  0.70233594  0.48364379  0.35314077    -0.72200
O1193       O  0.75433672  0.47120545  0.35448064    -0.72000
C1194       C  0.81765745  0.50310069  0.47902085     0.79800
C1195       C  0.82208987  0.64550070  0.47987553     0.80300
C1196       C  0.86199442  0.58580212  0.33967287     0.79200
C1197       C  0.73832441  0.61196065  0.33820614     0.79600
C1198       C  0.68213262  0.51073938  0.47582155     0.80700
C1199       C  0.71889741  0.46193408  0.34291697     0.79800
Zn1200     Zn  0.79359952  0.61214405  0.10480305     1.49700
Zn1201     Zn  0.77601745  0.55477915  0.02339686     1.49400
Zn1202     Zn  0.81190196  0.53522131  0.10934200     1.49100
Zn1203     Zn  0.72315778  0.52065008  0.10734890     1.49500
O1204       O  0.77643856  0.55585347  0.08611837    -1.81500
O1205       O  0.81350403  0.65212511  0.05513619    -0.72100
O1206       O  0.80601658  0.52514836  0.00281770    -0.71900
O1207       O  0.85565256  0.57874190  0.14370049    -0.71400
O1208       O  0.80415981  0.61203443  0.99838662    -0.72100
O1209       O  0.84127641  0.63066742  0.14350834    -0.71700
O1210       O  0.83464432  0.51532070  0.06156396    -0.72300
O1211       O  0.72086105  0.47364882  0.14147949    -0.71700
O1212       O  0.71917162  0.52607356  0.00102573    -0.72500
O1213       O  0.78407909  0.48797658  0.14984020    -0.71800
O1214       O  0.68238113  0.50008051  0.05956266    -0.72300
O1215       O  0.70622802  0.55126013  0.14775162    -0.72200
O1216       O  0.75014287  0.61639162  0.13890869    -0.72000
C1217       C  0.81734410  0.64741960  0.01504865     0.79800
C1218       C  0.82847338  0.51242642  0.02098011     0.80300
C1219       C  0.86297793  0.61455145  0.15519234     0.79200
C1220       C  0.74750628  0.46597566  0.15792217     0.79600
C1221       C  0.68547411  0.50565624  0.01897176     0.80700
C1222       C  0.71846948  0.58878718  0.15568735     0.79800
C1223       C  0.66235396  0.33178396  0.28968867     0.48100
H1224       H  0.66533654  0.33368025  0.32542658    -0.00900
C1225       C  0.65541585  0.32719998  0.20604404     0.48200
H1226       H  0.65314016  0.32581606  0.17027374    -0.00900
C1227       C  0.67417284  0.64065447  0.26327437    -0.14600
C1228       C  0.95701857  0.64744614  0.27473703    -0.14400
C1229       C  0.68830823  0.37203749  0.26647846    -0.14700
C1230       C  0.67620932  0.64799019  0.21963881    -0.14700
C1231       C  0.95049000  0.64361862  0.23109223    -0.14300
C1232       C  0.68422161  0.36959499  0.22250662    -0.14600
C1233       C  0.73589390  0.43127100  0.18766352    -0.13800
C1234       C  0.69759596  0.40483508  0.19335727    -0.29000
H1235       H  0.75885293  0.42718083  0.20484517     0.15200
H1236       H  0.67479074  0.40729602  0.17407123     0.15800
C1237       C  0.89822392  0.63852751  0.18164773    -0.13800
C1238       C  0.91142597  0.62059772  0.21041126    -0.29000
H1239       H  0.91402036  0.67132536  0.17702198     0.15200
H1240       H  0.89448938  0.58825347  0.21702113     0.15800
C1241       C  0.69937430  0.63730172  0.18884081    -0.13800
C1242       C  0.69520920  0.59955952  0.18597503    -0.29000
H1243       H  0.71853585  0.66063263  0.16646545     0.15200
H1244       H  0.67329043  0.57549612  0.20572540     0.15800
C1245       C  0.92506698  0.63537361  0.30714416    -0.13800
C1246       C  0.89593860  0.59708444  0.31037751    -0.29000
H1247       H  0.92600126  0.65873455  0.32897367     0.15200
H1248       H  0.89714634  0.57319840  0.29110105     0.15800
C1249       C  0.71270610  0.40996254  0.29025155    -0.13800
C1250       C  0.69565821  0.42473370  0.31786545    -0.29000
H1251       H  0.74440826  0.42622509  0.28417181     0.15200
H1252       H  0.66350050  0.40985318  0.32092896     0.15800
C1253       C  0.72432301  0.63521139  0.31009125    -0.13800
C1254       C  0.69109847  0.61687124  0.28596512    -0.29000
H1255       H  0.74130317  0.66822306  0.30965681     0.15200
H1256       H  0.67445259  0.58387804  0.28497770     0.15800
C1257       C  0.96507338  0.37873894  0.65695404    -0.13800
C1258       C  0.96897182  0.38075538  0.70019178    -0.29000
H1259       H  0.97485877  0.36069102  0.63786659     0.15200
H1260       H  0.95825617  0.39904415  0.71774746     0.15800
C1261       C  0.78898685  0.39953191  0.69374088    -0.13800
C1262       C  0.75170541  0.37019221  0.68778977    -0.29000
H1263       H  0.79843903  0.41506891  0.72446109     0.15200
H1264       H  0.74358467  0.35608146  0.65611026     0.16600
C1265       C  0.96720157  0.58534540  0.70114792    -0.13800
C1266       C  0.95961758  0.58341334  0.65850799    -0.29000
H1267       H  0.95914162  0.55709132  0.71840501     0.15200
H1268       H  0.96546365  0.61050976  0.64017763     0.15800
C1269       C  0.95142987  0.37147562  0.82778192    -0.13800
C1270       C  0.97858248  0.38755256  0.79654320    -0.29000
H1271       H  0.93777558  0.33879246  0.83325579     0.15200
H1272       H  0.98994059  0.41945100  0.78801148     0.15800
C1273       C  0.76681312  0.39625907  0.82369731    -0.13800
C1274       C  0.75908369  0.37160071  0.78947261    -0.29000
H1275       H  0.74646885  0.40846957  0.83136621     0.15200
H1276       H  0.78063448  0.36175922  0.77927127     0.15800
C1277       C  0.97648793  0.58886782  0.79761529    -0.13800
C1278       C  0.95240896  0.58164112  0.83141023    -0.29000
H1279       H  0.98531834  0.56604620  0.78790245     0.15200
H1280       H  0.94103337  0.60296883  0.83885919     0.15800
Zn1281     Zn  0.94369018  0.80203117  0.89473919     1.49700
Zn1282     Zn  0.86040172  0.80371250  0.89654466     1.49400
Zn1283     Zn  0.86113144  0.71866761  0.89723546     1.49100
Zn1284     Zn  0.88942234  0.77587299  0.98070081     1.49500
O1285       O  0.88926387  0.77510216  0.91755780    -1.81500
O1286       O  0.95097795  0.84830351  0.85334413    -0.72100
O1287       O  0.81117126  0.76705969  0.86580415    -0.71900
O1288       O  0.89849834  0.70285870  0.86711027    -0.71400
O1289       O  0.89145068  0.84614512  0.85372425    -0.72100
O1290       O  0.95470968  0.76079843  0.86103332    -0.71700
O1291       O  0.81699757  0.71070720  0.85531081    -0.72300
O1292       O  0.85855258  0.71850435  0.00512996    -0.71700
O1293       O  0.84360913  0.82894435  0.94324918    -0.72500
O1294       O  0.83648655  0.67936543  0.94671268    -0.71800
O1295       O  0.86116599  0.80684734  0.00221700    -0.72300
O1296       O  0.94622941  0.80463112  0.00391014    -0.72200
O1297       O  0.98352558  0.82502901  0.94476978    -0.72000
C1298       C  0.92671912  0.86097110  0.83987943     0.79800
C1299       C  0.79922966  0.73222420  0.84894346     0.80300
C1300       C  0.93400047  0.72267385  0.85382889     0.79200
C1301       C  0.83838111  0.68368258  0.98755757     0.79600
C1302       C  0.84471015  0.82607742  0.98395407     0.80700
C1303       C  0.98011485  0.82331269  0.98584055     0.79800
Zn1304     Zn  0.83338926  0.74606407  0.56180122     1.49700
Zn1305     Zn  0.91273334  0.83181973  0.55023998     1.49400
Zn1306     Zn  0.90054605  0.78154028  0.63594672     1.49100
Zn1307     Zn  0.91723828  0.74798963  0.54673398     1.49500
O1308       O  0.89074952  0.77670714  0.57351851    -1.81500
O1309       O  0.81530640  0.78095060  0.52611786    -0.72100
O1310       O  0.92997536  0.87391267  0.59764352    -0.71900
O1311       O  0.84956950  0.75724794  0.66817260    -0.71400
O1312       O  0.87128846  0.83846770  0.51575895    -0.72100
O1313       O  0.80250271  0.73039681  0.61778883    -0.71700
O1314       O  0.92871693  0.83957215  0.65685493    -0.72300
O1315       O  0.93802474  0.72424098  0.59321058    -0.71700
O1316       O  0.96110893  0.84505274  0.51336887    -0.72500
O1317       O  0.93046426  0.75131231  0.65433409    -0.71800
O1318       O  0.96444151  0.78656881  0.51117316    -0.72300
O1319       O  0.87911840  0.70125089  0.50887515    -0.72200
O1320       O  0.81977900  0.69415291  0.52787853    -0.72000
C1321       C  0.83411645  0.81659775  0.51014775     0.79800
C1322       C  0.93609850  0.87280895  0.63790530     0.80300
C1323       C  0.81330325  0.73763835  0.65724711     0.79200
C1324       C  0.94212536  0.72895506  0.63396673     0.79600
C1325       C  0.97800591  0.82403207  0.50126096     0.80700
C1326       C  0.84128897  0.68209664  0.50710683     0.79800
C1327       C  0.68049218  0.66077799  0.78731744     0.48100
H1328       H  0.68341836  0.66189543  0.82306731    -0.00900
C1329       C  0.67301140  0.65693861  0.70398109     0.48200
H1330       H  0.67454956  0.00363063  0.66481020    -0.00900
C1331       C  0.98929638  0.69255434  0.76983304    -0.14600
C1332       C  0.72024095  0.67879348  0.76336699    -0.14400
C1333       C  0.98644021  0.95637633  0.77240170    -0.14700
C1334       C  0.98669379  0.69125022  0.72561888    -0.14700
C1335       C  0.71623173  0.67684068  0.71923114    -0.14300
C1336       C  0.98129216  0.95347330  0.72832591    -0.14600
Zn1337     Zn  0.79079549  0.85204298  0.39669179     1.49700
Zn1338     Zn  0.77149553  0.88761580  0.48331518     1.49400
Zn1339     Zn  0.79870578  0.94244898  0.39667848     1.49100
Zn1340     Zn  0.71478829  0.86571693  0.40276944     1.49500
O1341       O  0.76977042  0.88726905  0.42021741    -1.81500
O1342       O  0.80869374  0.82706467  0.44443221    -0.72100
O1343       O  0.80008517  0.94582603  0.50556683    -0.71900
O1344       O  0.84413173  0.94738261  0.35936845    -0.71400
O1345       O  0.80132213  0.85710963  0.50359108    -0.72100
O1346       O  0.83960825  0.88527113  0.36070850    -0.71700
O1347       O  0.82208955  0.98300091  0.44574344    -0.72300
O1348       O  0.70291165  0.90791096  0.37802354    -0.71700
O1349       O  0.71589908  0.85947446  0.50900944    -0.72500
O1350       O  0.76227382  0.95777682  0.36076771    -0.71800
O1351       O  0.67723548  0.83989013  0.45064334    -0.72300
O1352       O  0.70047615  0.82397577  0.35738499    -0.72200
O1353       O  0.75003757  0.80775696  0.35855788    -0.72000
C1354       C  0.81289170  0.83382883  0.48486373     0.79800
C1355       C  0.81941914  0.98001515  0.48670151     0.80300
C1356       C  0.85694763  0.92234064  0.34865945     0.79200
C1357       C  0.72442421  0.94133731  0.35935495     0.79600
C1358       C  0.68174241  0.84116059  0.49121939     0.80700
C1359       C  0.71621904  0.80231636  0.34465514     0.79800
Zn1360     Zn  0.80008971  0.94368567  0.10297652     1.49700
Zn1361     Zn  0.77595452  0.88891987  0.01616196     1.49400
Zn1362     Zn  0.80462232  0.85951891  0.09919213     1.49100
Zn1363     Zn  0.72057130  0.85828348  0.09954148     1.49500
O1364       O  0.77526895  0.88795816  0.07934003    -1.81500
O1365       O  0.82157545  0.98491843  0.05417919    -0.72100
O1366       O  0.80794884  0.86259936  0.99258312    -0.71900
O1367       O  0.85216212  0.89621402  0.13321093    -0.71400
O1368       O  0.80239434  0.94685621  0.99465129    -0.72100
O1369       O  0.84725699  0.95345572  0.14104702    -0.71700
O1370       O  0.82568517  0.84020877  0.05110872    -0.72300
O1371       O  0.71392520  0.81320666  0.14138229    -0.71700
O1372       O  0.72028800  0.85762796  0.99127831    -0.72500
O1373       O  0.77119456  0.81086755  0.13523531    -0.71800
O1374       O  0.68236895  0.83349169  0.04938311    -0.72300
O1375       O  0.70454978  0.89621159  0.12994531    -0.72200
O1376       O  0.76039576  0.95426388  0.13783907    -0.72000
C1377       C  0.82015515  0.98145947  0.01318180     0.79800
C1378       C  0.82538517  0.84421651  0.01052221     0.80300
C1379       C  0.86506133  0.93201914  0.14801766     0.79200
C1380       C  0.73637732  0.79707942  0.15041932     0.79600
C1381       C  0.68642455  0.83665006  0.00854480     0.80700
C1382       C  0.72325476  0.93246684  0.14417175     0.79800
C1383       C  0.65384611  0.66147618  0.28819765     0.48100
H1384       H  0.65269871  0.65623036  0.32360105    -0.00900
C1385       C  0.65705799  0.67468136  0.20545173     0.48200
H1386       H  0.65820313  0.67999603  0.17004994    -0.00900
C1387       C  0.69090401  0.98971506  0.27013445    -0.14600
C1388       C  0.94528433  0.98562823  0.27560374    -0.14400
C1389       C  0.67705966  0.70665829  0.27564567    -0.14700
C1390       C  0.69076405  0.98858814  0.22588030    -0.14700
C1391       C  0.94562677  0.98759292  0.23158980    -0.14300
C1392       C  0.67817071  0.71362728  0.23204624    -0.14600
C1393       C  0.72145810  0.76018878  0.17713949    -0.13800
C1394       C  0.69751786  0.75402965  0.21090169    -0.29000
H1395       H  0.73047671  0.73719288  0.16866903     0.15200
H1396       H  0.69062825  0.77796692  0.22150358     0.15800
C1397       C  0.90209551  0.94858241  0.17297655    -0.13800
C1398       C  0.90936009  0.97485669  0.20531820    -0.29000
H1399       H  0.92282143  0.93651101  0.16662645     0.15200
H1400       H  0.88712037  0.98397735  0.21491547     0.15800
C1401       C  0.71626294  0.97627484  0.20008025    -0.13800
C1402       C  0.70042001  0.94884264  0.16824058    -0.29000
H1403       H  0.74718733  0.98720739  0.20925901     0.15200
H1404       H  0.66863752  0.93528199  0.16198821     0.15800
C1405       C  0.90892433  0.97226178  0.30163959    -0.13800
C1406       C  0.89321814  0.93642165  0.32234767    -0.29000
H1407       H  0.89423714  0.99143419  0.30213184     0.15200
H1408       H  0.90717675  0.91666186  0.31940575     0.15800
C1409       C  0.69995152  0.73806974  0.30777361    -0.13800
C1410       C  0.69412987  0.77066883  0.31274112    -0.29000
H1411       H  0.72011240  0.73300902  0.32905300     0.15200
H1412       H  0.67091613  0.77318698  0.29424956     0.15800
C1413       C  0.70358769  0.95973896  0.33507292    -0.13800
C1414       C  0.71701680  0.97926831  0.29765966    -0.29000
H1415       H  0.67340027  0.95129481  0.34505914     0.15200
H1416       H  0.74554629  0.98382929  0.28548471     0.15800
C1417       C  0.96080182  0.70761964  0.65772448    -0.13800
C1418       C  0.96772525  0.71221443  0.70052369    -0.29000
H1419       H  0.96837130  0.68757721  0.63902508     0.15200
H1420       H  0.95863593  0.73190337  0.71794179     0.15800
C1421       C  0.78359954  0.72356182  0.69178021    -0.13800
C1422       C  0.74822888  0.69092615  0.68662549    -0.29000
H1423       H  0.79134656  0.74050215  0.72182528     0.15200
H1424       H  0.74095718  0.67531777  0.65566742     0.16600
C1425       C  0.96223041  0.91396178  0.70448392    -0.13800
C1426       C  0.95213907  0.91130044  0.66244452    -0.29000
H1427       H  0.95720166  0.88640731  0.72164222     0.15200
H1428       H  0.95545508  0.93795350  0.64478183     0.15800
C1429       C  0.95073181  0.70009429  0.82937537    -0.13800
C1430       C  0.97637335  0.71711642  0.79706740    -0.29000
H1431       H  0.93876462  0.66763520  0.83524297     0.15200
H1432       H  0.98574524  0.74869316  0.78843049     0.15800
C1433       C  0.76333705  0.71691653  0.82241468    -0.13800
C1434       C  0.75791312  0.69378877  0.78749245    -0.29000
H1435       H  0.74142945  0.72697446  0.83058845     0.15200
H1436       H  0.78106529  0.68660316  0.77643132     0.15800
C1437       C  0.97603329  0.92164550  0.80210434    -0.13800
C1438       C  0.93846773  0.89323192  0.80709490    -0.29000
H1439       H  0.99906987  0.92212330  0.82344889     0.15200
H1440       H  0.91512678  0.89545198  0.78853540     0.15800
loop_ 
_geom_bond_atom_site_label_1 
_geom_bond_atom_site_label_2 
_geom_bond_distance 
_geom_bond_site_symmetry_2 
_ccdc_geom_bond_type 
Zn1           O5   1.960       .  S
Zn1           O6   2.037       .  S
Zn1          O10   2.047       .  S
Zn1          O17   2.040       .  S
Zn2           O5   1.945       .  S
Zn2           O7   1.971       .  S
Zn2           O9   1.992       .  S
Zn2          O13   1.991       .  S
Zn3           O5   1.962       .  S
Zn3           O8   2.000       .  S
Zn3          O11   2.019       .  S
Zn3          O14   2.008       .  S
Zn4           O5   1.952       .  S
Zn4          O12   2.009       .  S
Zn4          O15   2.030   1_556  S
Zn4          O16   2.038   1_556  S
O6           C18   1.277       .  A
O7           C19   1.265       .  A
O8           C20   1.271       .  A
O9           C18   1.269       .  A
O10          C20   1.277       .  A
O11          C19   1.273       .  A
O12          C21   1.275       .  A
O13          C22   1.269       .  A
O14          C21   1.271       .  A
O15          C22   1.274   1_554  A
O16          C23   1.277   1_554  A
O17          C23   1.277       .  A
C18         C158   1.470       .  S
C19         C153   1.458       .  S
C20         C149   1.475       .  S
C21         C417   1.463   1_546  S
C22          C98   1.467   1_556  S
C23         C581   1.480   1_556  S
Zn24         O28   1.967       .  S
Zn24         O29   2.046       .  S
Zn24         O33   2.022       .  S
Zn24         O40   2.040       .  S
Zn25         O28   1.946       .  S
Zn25         O30   1.997       .  S
Zn25         O32   1.986       .  S
Zn25         O36   2.018       .  S
Zn26         O28   1.959       .  S
Zn26         O31   2.005       .  S
Zn26         O34   2.022       .  S
Zn26         O37   2.012       .  S
Zn27         O28   1.954       .  S
Zn27         O35   2.002       .  S
Zn27         O38   2.022       .  S
Zn27         O39   2.019       .  S
O29          C41   1.276       .  A
O30          C42   1.269       .  A
O31          C43   1.271       .  A
O32          C41   1.270       .  A
O33          C43   1.274       .  A
O34          C42   1.273       .  A
O35          C44   1.271       .  A
O36          C45   1.271       .  A
O37          C44   1.275       .  A
O38          C45   1.272       .  A
O39          C46   1.273       .  A
O40          C46   1.275       .  A
C41          C74   1.458       .  S
C42         C146   1.472       .  S
C43         C141   1.470       .  S
C44         C137   1.470       .  S
C45         C558   1.462       .  S
C46         C395   1.467   1_545  S
C47          H48   1.112   1_565  S
C47          C52   1.533   1_565  S
C47        C1333   1.529   1_455  S
C47        C1011   1.535   1_465  S
C49         H370   1.100       .  S
C49          C55   1.531   1_565  S
C49        C1014   1.544   1_465  S
C49        C1336   1.544   1_455  S
H50         C209   1.099       .  S
C51         C527   1.535       .  S
C51          C54   1.371       .  D
C51         C150   1.481       .  S
C52          C55   1.372       .  D
C52         C154   1.469       .  S
C53         C687   1.529       .  S
C53          C56   1.373       .  D
C53         C157   1.477       .  S
C54         C529   1.542       .  S
C54         C138   1.489       .  S
C55         C142   1.488       .  S
C56         C689   1.544       .  S
C56         C145   1.490       .  S
Zn57         O61   1.945       .  S
Zn57         O62   1.989       .  S
Zn57         O66   1.996       .  S
Zn57         O73   2.013       .  S
Zn58         O61   1.957       .  S
Zn58         O63   2.027       .  S
Zn58         O65   2.044       .  S
Zn58         O69   2.039       .  S
Zn59         O61   1.969       .  S
Zn59         O64   2.068       .  S
Zn59         O67   2.045       .  S
Zn59         O70   2.045       .  S
Zn60         O61   1.945       .  S
Zn60         O68   1.993       .  S
Zn60         O71   2.002       .  S
Zn60         O72   1.995       .  S
O62          C74   1.270       .  A
O63          C75   1.275       .  A
O64          C76   1.278       .  A
O65          C74   1.276       .  A
O66          C76   1.270       .  A
O67          C75   1.277       .  A
O68          C77   1.269       .  A
O69          C78   1.274       .  A
O70          C77   1.279       .  A
O71          C78   1.269       .  A
O72          C79   1.272       .  A
O73          C79   1.271       .  A
C75         C206   1.468       .  S
C76         C126   1.478       .  S
C77         C133   1.469       .  S
C78        C1005   1.463   1_455  S
C79         C130   1.469       .  S
Zn80         O84   1.961       .  S
Zn80         O85   2.008       .  S
Zn80         O89   2.021       .  S
Zn80         O96   2.004       .  S
Zn81         O84   1.961       .  S
Zn81         O86   2.020   1_554  S
Zn81         O88   2.035   1_554  S
Zn81         O92   2.041   1_554  S
Zn82         O84   1.955       .  S
Zn82         O87   2.010       .  S
Zn82         O90   2.009       .  S
Zn82         O93   2.008       .  S
Zn83         O84   1.968       .  S
Zn83         O91   2.067       .  S
Zn83         O94   2.051       .  S
Zn83         O95   2.045       .  S
O85          C97   1.271       .  A
O86          C98   1.275   1_556  A
O87          C99   1.272       .  A
O88          C97   1.276   1_556  A
O89          C99   1.274       .  A
O90          C98   1.272       .  A
O91         C100   1.278       .  A
O92         C101   1.277   1_556  A
O93         C100   1.271       .  A
O94         C101   1.279       .  A
O95         C102   1.278       .  A
O96         C102   1.271       .  A
C97         C181   1.471   1_554  S
C99         C117   1.472       .  S
C100        C113   1.478       .  S
C101        C983   1.483   1_454  S
C102        C122   1.472       .  S
C103        H104   1.112       .  S
C103        C109   1.532   1_665  S
C103       C1388   1.531       .  S
C103        C427   1.536   1_655  S
C105        H106   1.110       .  S
C105        C112   1.544   1_655  S
C105       C1391   1.540   1_545  S
C105        C430   1.541   1_645  S
C107        C263   1.537   1_455  S
C107        C110   1.368       .  D
C107        C134   1.481       .  S
C108        C743   1.542       .  S
C108        C111   1.371       .  D
C108        C125   1.492       .  S
C109        C112   1.375       .  D
C109        C129   1.468       .  S
C110        C265   1.539   1_455  S
C110        C121   1.484       .  S
C111        C745   1.536       .  S
C111        C118   1.473       .  S
C112        C114   1.495       .  S
C113        C114   1.342       .  D
C113        H115   1.085       .  S
C114        H116   1.086       .  S
C117        C118   1.340       .  D
C117        H119   1.087       .  S
C118        H120   1.085       .  S
C121        C122   1.336       .  D
C121        H123   1.088       .  S
C122        H124   1.086       .  S
C125        C126   1.342       .  D
C125        H127   1.086       .  S
C126        H128   1.086       .  S
C129        C130   1.338       .  D
C129        H131   1.087       .  S
C130        H132   1.087       .  S
C133        C134   1.334       .  D
C133        H135   1.086       .  S
C134        H136   1.088       .  S
C137        C138   1.342       .  D
C137        H139   1.082       .  S
C138        H140   1.086       .  S
C141        C142   1.342       .  D
C141        H143   1.082       .  S
C142        H144   1.087       .  S
C145        C146   1.342       .  D
C145        H147   1.086       .  S
C146        H148   1.083       .  S
C149        C150   1.338       .  D
C149        H151   1.086       .  S
C150        H152   1.086       .  S
C153        C154   1.333       .  D
C153        H155   1.088       .  S
C154        H156   1.087       .  S
C157        C158   1.337       .  D
C157        H159   1.086       .  S
C158        H160   1.087       .  S
Zn161       O165   1.967       .  S
Zn161       O166   2.028       .  S
Zn161       O170   2.039       .  S
Zn161       O177   2.026       .  S
Zn162       O165   1.944       .  S
Zn162       O167   1.957       .  S
Zn162       O169   1.970       .  S
Zn162       O173   1.981       .  S
Zn163       O165   1.957       .  S
Zn163       O168   1.997       .  S
Zn163       O171   2.022       .  S
Zn163       O174   2.014       .  S
Zn164       O165   1.947       .  S
Zn164       O172   2.033       .  S
Zn164       O175   2.033       .  S
Zn164       O176   2.021       .  S
O166        C178   1.276       .  A
O167        C179   1.263       .  A
O168        C180   1.271       .  A
O169        C178   1.266       .  A
O170        C180   1.277       .  A
O171        C179   1.273       .  A
O172        C181   1.277       .  A
O173        C182   1.266       .  A
O174        C181   1.273       .  A
O175        C182   1.275       .  A
O176        C183   1.276       .  A
O177        C183   1.274       .  A
C178        C318   1.461       .  S
C179        C313   1.456       .  S
C180        C309   1.473       .  S
C182        C258   1.465   1_556  S
C183        C741   1.471   1_556  S
Zn184       O188   1.972       .  S
Zn184       O189   2.050       .  S
Zn184       O193   2.030       .  S
Zn184       O200   2.037       .  S
Zn185       O188   1.949       .  S
Zn185       O190   1.998       .  S
Zn185       O192   1.995       .  S
Zn185       O196   2.009       .  S
Zn186       O188   1.967       .  S
Zn186       O191   2.010       .  S
Zn186       O194   2.033       .  S
Zn186       O197   2.036       .  S
Zn187       O188   1.956       .  S
Zn187       O195   2.020       .  S
Zn187       O198   2.024       .  S
Zn187       O199   2.031       .  S
O189        C201   1.276       .  A
O190        C202   1.270       .  A
O191        C203   1.272       .  A
O192        C201   1.270       .  A
O193        C203   1.276       .  A
O194        C202   1.275       .  A
O195        C204   1.274       .  A
O196        C205   1.271       .  A
O197        C204   1.276       .  A
O198        C205   1.273       .  A
O199        C206   1.275       .  A
O200        C206   1.275       .  A
C201        C234   1.462       .  S
C202        C306   1.475       .  S
C203        C301   1.474       .  S
C204        C297   1.481       .  S
C205        C718   1.460       .  S
C207        H208   1.111       .  S
C207       C1013   1.527   1_455  S
C207        C212   1.538       .  S
C207       C1171   1.538   1_455  S
C209        C215   1.530       .  S
C209       C1174   1.543   1_455  S
C209       C1016   1.547   1_455  S
H210        C369   1.100       .  S
C211        C687   1.532       .  S
C211        C214   1.372       .  D
C211        C310   1.475       .  S
C212        C215   1.374       .  D
C212        C314   1.471       .  S
C213        C847   1.529       .  S
C213        C216   1.373       .  D
C213        C317   1.471       .  S
C214        C689   1.544       .  S
C214        C298   1.499       .  S
C215        C302   1.491       .  S
C216        C849   1.541       .  S
C216        C305   1.494       .  S
Zn217       O221   1.953       .  S
Zn217       O222   2.001       .  S
Zn217       O226   2.002       .  S
Zn217       O233   2.025       .  S
Zn218       O221   1.965       .  S
Zn218       O223   2.034       .  S
Zn218       O225   2.045       .  S
Zn218       O229   2.032       .  S
Zn219       O221   1.974       .  S
Zn219       O224   2.054       .  S
Zn219       O227   2.052       .  S
Zn219       O230   2.056       .  S
Zn220       O221   1.951       .  S
Zn220       O228   1.995       .  S
Zn220       O231   2.002       .  S
Zn220       O232   2.003       .  S
O222        C234   1.271       .  A
O223        C235   1.276       .  A
O224        C236   1.278       .  A
O225        C234   1.276       .  A
O226        C236   1.270       .  A
O227        C235   1.278       .  A
O228        C237   1.270       .  A
O229        C238   1.274       .  A
O230        C237   1.278       .  A
O231        C238   1.269       .  A
O232        C239   1.272       .  A
O233        C239   1.272       .  A
C235        C366   1.473       .  S
C236        C286   1.477       .  S
C237        C293   1.471       .  S
C238       C1165   1.460   1_455  S
C239        C290   1.473       .  S
Zn240       O244   1.957       .  S
Zn240       O245   2.006       .  S
Zn240       O249   1.999       .  S
Zn240       O256   1.988       .  S
Zn241       O244   1.965       .  S
Zn241       O246   2.036   1_554  S
Zn241       O248   2.047   1_554  S
Zn241       O252   2.045   1_554  S
Zn242       O244   1.960       .  S
Zn242       O247   2.006       .  S
Zn242       O250   1.986       .  S
Zn242       O253   1.996       .  S
Zn243       O244   1.973       .  S
Zn243       O251   2.047       .  S
Zn243       O254   2.050       .  S
Zn243       O255   2.056       .  S
O245        C257   1.272       .  A
O246        C258   1.276   1_556  A
O247        C259   1.270       .  A
O248        C257   1.278   1_556  A
O249        C259   1.270       .  A
O250        C258   1.268       .  A
O251        C260   1.277       .  A
O252        C261   1.278   1_556  A
O253        C260   1.270       .  A
O254        C261   1.278       .  A
O255        C262   1.279       .  A
O256        C262   1.268       .  A
C257        C341   1.474   1_554  S
C259        C277   1.465       .  S
C260        C273   1.471       .  S
C261       C1143   1.484   1_454  S
C262        C282   1.475       .  S
C263        H264   1.111       .  S
C263        C269   1.533   1_655  S
C263       C1068   1.539       .  S
C265        H266   1.111       .  S
C265       C1071   1.535       .  S
C265        C272   1.540   1_655  S
C267        C423   1.542       .  S
C267        C270   1.374       .  D
C267        C294   1.484       .  S
C268        C903   1.541       .  S
C268        C271   1.370       .  D
C268        C285   1.488       .  S
C269        C272   1.370       .  D
C269        C289   1.474       .  S
C270        C425   1.532   1_455  S
C270        C281   1.480       .  S
C271        C905   1.535       .  S
C271        C278   1.471       .  S
C272        C274   1.482       .  S
C273        C274   1.338       .  D
C273        H275   1.087       .  S
C274        H276   1.087       .  S
C277        C278   1.339       .  D
C277        H279   1.088       .  S
C278        H280   1.086       .  S
C281        C282   1.336       .  D
C281        H283   1.086       .  S
C282        H284   1.087       .  S
C285        C286   1.340       .  D
C285        H287   1.086       .  S
C286        H288   1.087       .  S
C289        C290   1.341       .  D
C289        H291   1.086       .  S
C290        H292   1.087       .  S
C293        C294   1.338       .  D
C293        H295   1.087       .  S
C294        H296   1.085       .  S
C297        C298   1.346       .  D
C297        H299   1.082       .  S
C298        H300   1.087       .  S
C301        C302   1.343       .  D
C301        H303   1.082       .  S
C302        H304   1.086       .  S
C305        C306   1.342       .  D
C305        H307   1.085       .  S
C306        H308   1.082       .  S
C309        C310   1.337       .  D
C309        H311   1.088       .  S
C310        H312   1.086       .  S
C313        C314   1.332       .  D
C313        H315   1.087       .  S
C314        H316   1.087       .  S
C317        C318   1.334       .  D
C317        H319   1.086       .  S
C318        H320   1.087       .  S
Zn321       O325   1.977       .  S
Zn321       O326   2.042       .  S
Zn321       O330   2.052       .  S
Zn321       O337   2.036       .  S
Zn322       O325   1.956       .  S
Zn322       O327   2.018       .  S
Zn322       O329   2.010       .  S
Zn322       O333   1.994       .  S
Zn323       O325   1.965       .  S
Zn323       O328   1.999       .  S
Zn323       O331   2.011       .  S
Zn323       O334   2.020       .  S
Zn324       O325   1.975       .  S
Zn324       O332   2.038   1_556  S
Zn324       O335   2.061   1_556  S
Zn324       O336   2.045   1_556  S
O326        C338   1.277       .  A
O327        C339   1.271       .  A
O328        C340   1.270       .  A
O329        C338   1.272       .  A
O330        C340   1.277       .  A
O331        C339   1.271       .  A
O332        C341   1.278   1_554  A
O333        C342   1.271       .  A
O334        C341   1.274       .  A
O335        C342   1.277   1_554  A
O336        C343   1.278   1_554  A
O337        C343   1.276       .  A
C338        C478   1.477       .  S
C339        C473   1.471       .  S
C340        C469   1.476       .  S
C342        C418   1.475   1_556  S
C343        C901   1.479   1_556  S
Zn344       O348   1.958       .  S
Zn344       O349   2.048       .  S
Zn344       O353   2.031       .  S
Zn344       O360   2.052       .  S
Zn345       O348   1.945       .  S
Zn345       O350   1.991       .  S
Zn345       O352   1.988       .  S
Zn345       O356   1.997       .  S
Zn346       O348   1.956       .  S
Zn346       O351   1.997       .  S
Zn346       O354   2.004       .  S
Zn346       O357   2.009       .  S
Zn347       O348   1.948       .  S
Zn347       O355   2.011       .  S
Zn347       O358   2.037       .  S
Zn347       O359   2.035       .  S
O349        C361   1.276       .  A
O350        C362   1.269       .  A
O351        C363   1.269       .  A
O352        C361   1.270       .  A
O353        C363   1.277       .  A
O354        C362   1.272       .  A
O355        C364   1.273       .  A
O356        C365   1.269       .  A
O357        C364   1.273       .  A
O358        C365   1.275       .  A
O359        C366   1.276       .  A
O360        C366   1.277       .  A
C361        C394   1.459       .  S
C362        C466   1.468       .  S
C363        C461   1.474       .  S
C364        C457   1.470       .  S
C365        C878   1.460       .  S
C367        H368   1.112       .  S
C367       C1173   1.540   1_455  S
C367        C372   1.538       .  S
C367       C1331   1.536   1_455  S
C369        C375   1.531       .  S
C369       C1334   1.542   1_455  S
C369       C1176   1.539   1_455  S
C371        C847   1.534       .  S
C371        C374   1.376       .  D
C371        C470   1.484       .  S
C372        C375   1.377       .  D
C372        C474   1.477       .  S
C373        C527   1.533   1_565  S
C373        C376   1.371       .  D
C373        C477   1.481       .  S
C374        C849   1.543       .  S
C374        C458   1.491       .  S
C375        C462   1.487       .  S
C376        C529   1.542   1_565  S
C376        C465   1.486       .  S
Zn377       O381   1.939       .  S
Zn377       O382   1.980       .  S
Zn377       O386   1.984       .  S
Zn377       O393   1.981       .  S
Zn378       O381   1.962       .  S
Zn378       O383   2.047       .  S
Zn378       O385   2.052       .  S
Zn378       O389   2.022       .  S
Zn379       O381   1.961       .  S
Zn379       O384   2.040       .  S
Zn379       O387   2.016       .  S
Zn379       O390   2.033       .  S
Zn380       O381   1.962       .  S
Zn380       O388   2.023       .  S
Zn380       O391   2.036       .  S
Zn380       O392   2.037       .  S
O382        C394   1.267       .  A
O383        C395   1.277       .  A
O384        C396   1.276       .  A
O385        C394   1.276       .  A
O386        C396   1.267       .  A
O387        C395   1.273       .  A
O388        C397   1.275       .  A
O389        C398   1.274       .  A
O390        C397   1.275       .  A
O391        C398   1.275       .  A
O392        C399   1.275       .  A
O393        C399   1.267       .  A
C396        C446   1.469       .  S
C397        C453   1.479       .  S
C398       C1325   1.466   1_455  S
C399        C450   1.467       .  S
Zn400       O404   1.955       .  S
Zn400       O405   1.973       .  S
Zn400       O409   2.000       .  S
Zn400       O416   2.000       .  S
Zn401       O404   1.963       .  S
Zn401       O406   2.012       .  S
Zn401       O408   2.036   1_554  S
Zn401       O412   2.038   1_554  S
Zn402       O404   1.970       .  S
Zn402       O407   2.022       .  S
Zn402       O410   2.047       .  S
Zn402       O413   2.012       .  S
Zn403       O404   1.970       .  S
Zn403       O411   2.033       .  S
Zn403       O414   2.045       .  S
Zn403       O415   2.055       .  S
O405        C417   1.267       .  A
O406        C418   1.275       .  A
O407        C419   1.274       .  A
O408        C417   1.274   1_556  A
O409        C419   1.268       .  A
O410        C418   1.276       .  A
O411        C420   1.276       .  A
O412        C421   1.276   1_556  A
O413        C420   1.273       .  A
O414        C421   1.277       .  A
O415        C422   1.278       .  A
O416        C422   1.271       .  A
C419        C437   1.468       .  S
C420        C433   1.473       .  S
C421       C1303   1.481   1_454  S
C422        C442   1.476       .  S
C423        H424   1.110       .  S
C423        C429   1.536       .  S
C423       C1228   1.534   1_455  S
C425        H426   1.112       .  S
C425       C1231   1.530       .  S
C425        C432   1.536   1_655  S
C427        C430   1.369       .  D
C427        C454   1.480       .  S
C428        C583   1.532       .  S
C428        C431   1.369       .  D
C428        C445   1.475       .  S
C429        C432   1.371       .  D
C429        C449   1.481       .  S
C430        C441   1.487       .  S
C431        C585   1.534       .  S
C431        C438   1.474       .  S
C432        C434   1.481       .  S
C433        C434   1.342       .  D
C433        H435   1.087       .  S
C434        H436   1.086   1_455  S
C437        C438   1.335       .  D
C437        H439   1.087   1_565  S
C438        H440   1.086       .  S
C441        C442   1.339       .  D
C441        H443   1.086       .  S
C442        H444   1.086       .  S
C445        C446   1.336       .  D
C445        H447   1.086       .  S
C446        H448   1.087       .  S
C449        C450   1.338       .  D
C449        H451   1.087       .  S
C450        H452   1.087       .  S
C453        C454   1.343       .  D
C453        H455   1.087   1_565  S
C454        H456   1.086       .  S
C457        C458   1.346       .  D
C457        H459   1.081       .  S
C458        H460   1.085       .  S
C461        C462   1.339       .  D
C461        H463   1.083       .  S
C462        H464   1.087       .  S
C465        C466   1.342       .  D
C465        H467   1.083       .  S
C466        H468   1.078       .  S
C469        C470   1.339       .  D
C469        H471   1.087       .  S
C470        H472   1.086       .  S
C473        C474   1.342       .  D
C473        H475   1.087       .  S
C474        H476   1.086       .  S
C477        C478   1.339       .  D
C477        H479   1.086       .  S
C478        H480   1.086       .  S
Zn481       O485   1.967       .  S
Zn481       O486   2.037       .  S
Zn481       O490   2.046       .  S
Zn481       O497   2.033       .  S
Zn482       O485   1.949       .  S
Zn482       O487   1.981       .  S
Zn482       O489   1.990       .  S
Zn482       O493   1.979       .  S
Zn483       O485   1.959       .  S
Zn483       O488   2.005       .  S
Zn483       O491   2.017       .  S
Zn483       O494   2.015       .  S
Zn484       O485   1.953       .  S
Zn484       O492   2.029       .  S
Zn484       O495   2.033   1_556  S
Zn484       O496   2.037       .  S
O486        C498   1.276       .  A
O487        C499   1.268       .  A
O488        C500   1.271       .  A
O489        C498   1.269       .  A
O490        C500   1.278       .  A
O491        C499   1.274       .  A
O492        C501   1.277       .  A
O493        C502   1.266       .  A
O494        C501   1.272       .  A
O495        C502   1.275   1_554  A
O496        C503   1.278       .  A
O497        C503   1.276       .  A
C498        C638   1.470       .  S
C499        C633   1.463       .  S
C500        C629   1.475       .  S
C501        C897   1.471   1_546  S
C502        C578   1.464   1_556  S
C503       C1061   1.477   1_556  S
Zn504       O508   1.964       .  S
Zn504       O509   2.042       .  S
Zn504       O513   2.019       .  S
Zn504       O520   2.025       .  S
Zn505       O508   1.953       .  S
Zn505       O510   2.011       .  S
Zn505       O512   2.010       .  S
Zn505       O516   2.021       .  S
Zn506       O508   1.956       .  S
Zn506       O511   2.012       .  S
Zn506       O514   1.997       .  S
Zn506       O517   2.012       .  S
Zn507       O508   1.946       .  S
Zn507       O515   1.993       .  S
Zn507       O518   2.025       .  S
Zn507       O519   2.004       .  S
O509        C521   1.277       .  A
O510        C522   1.272       .  A
O511        C523   1.271       .  A
O512        C521   1.273       .  A
O513        C523   1.275       .  A
O514        C522   1.272       .  A
O515        C524   1.269       .  A
O516        C525   1.272       .  A
O517        C524   1.273       .  A
O518        C525   1.273       .  A
O519        C526   1.273       .  A
O520        C526   1.272       .  A
C521        C554   1.462       .  S
C522        C626   1.470       .  S
C523        C621   1.472       .  S
C524        C617   1.468       .  S
C525       C1038   1.465       .  S
C526        C875   1.457   1_545  S
C527        H528   1.111       .  S
C527        C532   1.537       .  S
C529        H850   1.099       .  S
C529        C535   1.528       .  S
H530        C689   1.101       .  S
C531       C1007   1.537   1_545  S
C531        C534   1.370       .  D
C531        C630   1.481       .  S
C532        C535   1.372       .  D
C532        C634   1.465       .  S
C533       C1167   1.538       .  S
C533        C536   1.371       .  D
C533        C637   1.478       .  S
C534       C1009   1.541       .  S
C534        C618   1.488       .  S
C535        C622   1.487       .  S
C536       C1169   1.535       .  S
C536        C625   1.487       .  S
Zn537       O541   1.964       .  S
Zn537       O542   2.034       .  S
Zn537       O546   2.023       .  S
Zn537       O553   2.029       .  S
Zn538       O541   1.960       .  S
Zn538       O543   2.039       .  S
Zn538       O545   2.015       .  S
Zn538       O549   2.028       .  S
Zn539       O541   1.962       .  S
Zn539       O544   2.022       .  S
Zn539       O547   2.006       .  S
Zn539       O550   2.021       .  S
Zn540       O541   1.954       .  S
Zn540       O548   2.001       .  S
Zn540       O551   2.010       .  S
Zn540       O552   1.999       .  S
O542        C554   1.276       .  A
O543        C555   1.275       .  A
O544        C556   1.273       .  A
O545        C554   1.273       .  A
O546        C556   1.273       .  A
O547        C555   1.271       .  A
O548        C557   1.273       .  A
O549        C558   1.273       .  A
O550        C557   1.274       .  A
O551        C558   1.270       .  A
O552        C559   1.269       .  A
O553        C559   1.275       .  A
C555        C686   1.463       .  S
C556        C606   1.475       .  S
C557        C613   1.469       .  S
C559        C610   1.468       .  S
Zn560       O564   1.961       .  S
Zn560       O565   2.019       .  S
Zn560       O569   2.048       .  S
Zn560       O576   2.012       .  S
Zn561       O564   1.968       .  S
Zn561       O566   2.025   1_554  S
Zn561       O568   2.040   1_554  S
Zn561       O572   2.036   1_554  S
Zn562       O564   1.949       .  S
Zn562       O567   1.971       .  S
Zn562       O570   1.987       .  S
Zn562       O573   1.986       .  S
Zn563       O564   1.974       .  S
Zn563       O571   2.060       .  S
Zn563       O574   2.048       .  S
Zn563       O575   2.052       .  S
O565        C577   1.274       .  A
O566        C578   1.275   1_556  A
O567        C579   1.265       .  A
O568        C577   1.275   1_556  A
O569        C579   1.275       .  A
O570        C578   1.268       .  A
O571        C580   1.279       .  A
O572        C581   1.277   1_556  A
O573        C580   1.268       .  A
O574        C581   1.278       .  A
O575        C582   1.278       .  A
O576        C582   1.273       .  A
C577        C661   1.475   1_554  S
C579        C597   1.465       .  S
C580        C593   1.475       .  S
C582        C602   1.477       .  S
C583        H584   1.111   1_565  S
C583        C589   1.536   1_565  S
C583        C907   1.539       .  S
C585        H586   1.112       .  S
C585        C910   1.540       .  S
C585        C592   1.535   1_565  S
C587        C743   1.536       .  S
C587        C590   1.370       .  D
C587        C614   1.473       .  S
C588       C1223   1.537       .  S
C588        C591   1.372       .  D
C588        C605   1.478       .  S
C589        C592   1.374       .  D
C589        C609   1.480       .  S
C590        C745   1.540       .  S
C590        C601   1.487       .  S
C591       C1225   1.538       .  S
C591        C598   1.483       .  S
C592        C594   1.482       .  S
C593        C594   1.337       .  D
C593        H595   1.087       .  S
C594        H596   1.086       .  S
C597        C598   1.338       .  D
C597        H599   1.087       .  S
C598        H600   1.086       .  S
C601        C602   1.342       .  D
C601        H603   1.086       .  S
C602        H604   1.087       .  S
C605        C606   1.342       .  D
C605        H607   1.086       .  S
C606        H608   1.087       .  S
C609        C610   1.338       .  D
C609        H611   1.085       .  S
C610        H612   1.087       .  S
C613        C614   1.341       .  D
C613        H615   1.087       .  S
C614        H616   1.086       .  S
C617        C618   1.342       .  D
C617        H619   1.082       .  S
C618        H620   1.086       .  S
C621        C622   1.343       .  D
C621        H623   1.082       .  S
C622        H624   1.086       .  S
C625        C626   1.344       .  D
C625        H627   1.085       .  S
C626        H628   1.082       .  S
C629        C630   1.338       .  D
C629        H631   1.087       .  S
C630        H632   1.086       .  S
C633        C634   1.333       .  D
C633        H635   1.088       .  S
C634        H636   1.086       .  S
C637        C638   1.336       .  D
C637        H639   1.086       .  S
C638        H640   1.087       .  S
Zn641       O645   1.950       .  S
Zn641       O646   2.007       .  S
Zn641       O650   2.003       .  S
Zn641       O657   1.993       .  S
Zn642       O645   1.949       .  S
Zn642       O647   1.981       .  S
Zn642       O649   1.993       .  S
Zn642       O653   1.983       .  S
Zn643       O645   1.984       .  S
Zn643       O648   2.075       .  S
Zn643       O651   2.054       .  S
Zn643       O654   2.055       .  S
Zn644       O645   1.966       .  S
Zn644       O652   2.014   1_556  S
Zn644       O655   2.056   1_556  S
Zn644       O656   2.048   1_556  S
O646        C658   1.273       .  A
O647        C659   1.268       .  A
O648        C660   1.280       .  A
O649        C658   1.268       .  A
O650        C660   1.270       .  A
O651        C659   1.278       .  A
O652        C661   1.276   1_554  A
O653        C662   1.267       .  A
O654        C661   1.279       .  A
O655        C662   1.276   1_554  A
O656        C663   1.278   1_554  A
O657        C663   1.270       .  A
C658        C798   1.463       .  S
C659        C793   1.469       .  S
C660        C789   1.483       .  S
C662        C738   1.472   1_556  S
C663       C1221   1.471   1_556  S
Zn664       O668   1.961       .  S
Zn664       O669   2.042       .  S
Zn664       O673   2.021       .  S
Zn664       O680   2.021       .  S
Zn665       O668   1.946       .  S
Zn665       O670   1.990       .  S
Zn665       O672   1.994       .  S
Zn665       O676   2.007       .  S
Zn666       O668   1.949       .  S
Zn666       O671   1.989       .  S
Zn666       O674   1.996       .  S
Zn666       O677   1.998       .  S
Zn667       O668   1.951       .  S
Zn667       O675   2.024       .  S
Zn667       O678   2.041       .  S
Zn667       O679   2.030       .  S
O669        C681   1.275       .  A
O670        C682   1.269       .  A
O671        C683   1.268       .  A
O672        C681   1.270       .  A
O673        C683   1.275       .  A
O674        C682   1.271       .  A
O675        C684   1.273       .  A
O676        C685   1.270       .  A
O677        C684   1.272       .  A
O678        C685   1.276       .  A
O679        C686   1.276       .  A
O680        C686   1.274       .  A
C681        C714   1.459       .  S
C682        C786   1.464       .  S
C683        C781   1.467       .  S
C684        C777   1.474       .  S
C685       C1198   1.464       .  S
C687        H688   1.112       .  S
C687        C692   1.531       .  S
C689        C695   1.537       .  S
H690        C849   1.100       .  S
C691       C1167   1.543       .  S
C691        C694   1.372       .  D
C691        C790   1.493       .  S
C692        C695   1.375       .  D
C692        C794   1.481       .  S
C693       C1327   1.531       .  S
C693        C696   1.368       .  D
C693        C797   1.468       .  S
C694       C1169   1.538       .  S
C694        C778   1.491       .  S
C695        C782   1.483       .  S
C696       C1329   1.534       .  S
C696        C785   1.485       .  S
Zn697       O701   1.964       .  S
Zn697       O702   2.010       .  S
Zn697       O706   2.025       .  S
Zn697       O713   2.028       .  S
Zn698       O701   1.963       .  S
Zn698       O703   2.040       .  S
Zn698       O705   2.027       .  S
Zn698       O709   2.025       .  S
Zn699       O701   1.959       .  S
Zn699       O704   2.030       .  S
Zn699       O707   2.014       .  S
Zn699       O710   2.013       .  S
Zn700       O701   1.957       .  S
Zn700       O708   2.014       .  S
Zn700       O711   2.009       .  S
Zn700       O712   2.000       .  S
O702        C714   1.272       .  A
O703        C715   1.276       .  A
O704        C716   1.275       .  A
O705        C714   1.275       .  A
O706        C716   1.273       .  A
O707        C715   1.272       .  A
O708        C717   1.274       .  A
O709        C718   1.273       .  A
O710        C717   1.272       .  A
O711        C718   1.270       .  A
O712        C719   1.270       .  A
O713        C719   1.275       .  A
C715        C846   1.465       .  S
C716        C766   1.478       .  S
C717        C773   1.469       .  S
C719        C770   1.469       .  S
Zn720       O724   1.961       .  S
Zn720       O725   2.030       .  S
Zn720       O729   2.028       .  S
Zn720       O736   2.020       .  S
Zn721       O724   1.963       .  S
Zn721       O726   2.025   1_554  S
Zn721       O728   2.050   1_554  S
Zn721       O732   2.043   1_554  S
Zn722       O724   1.970       .  S
Zn722       O727   2.000       .  S
Zn722       O730   2.026       .  S
Zn722       O733   2.020       .  S
Zn723       O724   1.961       .  S
Zn723       O731   2.006       .  S
Zn723       O734   2.005       .  S
Zn723       O735   2.030       .  S
O725        C737   1.275       .  A
O726        C738   1.277   1_556  A
O727        C739   1.270       .  A
O728        C737   1.277   1_556  A
O729        C739   1.276       .  A
O730        C738   1.273       .  A
O731        C740   1.270       .  A
O732        C741   1.277   1_556  A
O733        C740   1.273       .  A
O734        C741   1.273       .  A
O735        C742   1.275       .  A
O736        C742   1.273       .  A
C737        C821   1.481   1_554  S
C739        C757   1.472       .  S
C740        C753   1.471       .  S
C742        C762   1.474       .  S
C743        H744   1.111       .  S
C743        C749   1.537       .  S
C745        H746   1.111       .  S
C745        C752   1.534       .  S
C747        C903   1.536       .  S
C747        C750   1.369       .  D
C747        C774   1.476       .  S
C748       C1383   1.541       .  S
C748        C751   1.371       .  D
C748        C765   1.483       .  S
C749        C752   1.366       .  D
C749        C769   1.477       .  S
C750        C905   1.537       .  S
C750        C761   1.483       .  S
C751       C1385   1.529       .  S
C751        C758   1.475       .  S
C752        C754   1.476       .  S
C753        C754   1.339       .  D
C753        H755   1.088       .  S
C754        H756   1.086       .  S
C757        C758   1.338       .  D
C757        H759   1.088       .  S
C758        H760   1.086       .  S
C761        C762   1.341       .  D
C761        H763   1.086       .  S
C762        H764   1.086       .  S
C765        C766   1.341       .  D
C765        H767   1.087       .  S
C766        H768   1.087       .  S
C769        C770   1.337       .  D
C769        H771   1.086       .  S
C770        H772   1.088       .  S
C773        C774   1.340       .  D
C773        H775   1.087       .  S
C774        H776   1.086       .  S
C777        C778   1.346       .  D
C777        H779   1.082       .  S
C778        H780   1.086       .  S
C781        C782   1.339       .  D
C781        H783   1.083       .  S
C782        H784   1.087       .  S
C785        C786   1.341       .  D
C785        H787   1.085       .  S
C786        H788   1.081       .  S
C789        C790   1.339       .  D
C789        H791   1.086       .  S
C790        H792   1.087       .  S
C793        C794   1.338       .  D
C793        H795   1.088       .  S
C794        H796   1.086       .  S
C797        C798   1.334       .  D
C797        H799   1.087       .  S
C798        H800   1.088       .  S
Zn801       O805   1.969       .  S
Zn801       O806   2.027       .  S
Zn801       O810   2.048       .  S
Zn801       O817   2.030       .  S
Zn802       O805   1.973       .  S
Zn802       O807   1.990       .  S
Zn802       O809   2.030       .  S
Zn802       O813   2.019       .  S
Zn803       O805   1.968       .  S
Zn803       O808   2.020       .  S
Zn803       O811   2.024       .  S
Zn803       O814   2.046       .  S
Zn804       O805   1.965       .  S
Zn804       O812   2.037       .  S
Zn804       O815   2.037       .  S
Zn804       O816   2.030       .  S
O806        C818   1.273       .  A
O807        C819   1.268       .  A
O808        C820   1.273       .  A
O809        C818   1.274       .  A
O810        C820   1.278       .  A
O811        C819   1.276       .  A
O812        C821   1.276       .  A
O813        C822   1.273       .  A
O814        C821   1.276       .  A
O815        C822   1.276       .  A
O816        C823   1.276       .  A
O817        C823   1.275       .  A
C818        C958   1.477       .  S
C819        C953   1.469       .  S
C820        C949   1.482       .  S
C822        C898   1.475   1_556  S
C823       C1381   1.474   1_556  S
Zn824       O828   1.960       .  S
Zn824       O829   2.049       .  S
Zn824       O833   2.036       .  S
Zn824       O840   2.041       .  S
Zn825       O828   1.956       .  S
Zn825       O830   2.039       .  S
Zn825       O832   2.040       .  S
Zn825       O836   2.021       .  S
Zn826       O828   1.937       .  S
Zn826       O831   1.966       .  S
Zn826       O834   1.984       .  S
Zn826       O837   1.961       .  S
Zn827       O828   1.958       .  S
Zn827       O835   2.017       .  S
Zn827       O838   2.007       .  S
Zn827       O839   2.012       .  S
O829        C841   1.278       .  A
O830        C842   1.276       .  A
O831        C843   1.266       .  A
O832        C841   1.276       .  A
O833        C843   1.277       .  A
O834        C842   1.267       .  A
O835        C844   1.270       .  A
O836        C845   1.273       .  A
O837        C844   1.267       .  A
O838        C845   1.273       .  A
O839        C846   1.272       .  A
O840        C846   1.275       .  A
C841        C874   1.474       .  S
C842        C946   1.472       .  S
C843        C941   1.464       .  S
C844        C937   1.465       .  S
C845       C1358   1.456       .  S
C847        H848   1.112       .  S
C847        C852   1.523       .  S
C849        C855   1.531       .  S
C851       C1327   1.526       .  S
C851        C854   1.374       .  D
C851        C950   1.484       .  S
C852        C855   1.376       .  D
C852        C954   1.468       .  S
C853       C1007   1.540       .  S
C853        C856   1.376       .  D
C853        C957   1.483       .  S
C854       C1329   1.543       .  S
C854        C938   1.481       .  S
C855        C942   1.485       .  S
C856       C1009   1.527   1_565  S
C856        C945   1.484       .  S
Zn857       O861   1.979       .  S
Zn857       O862   2.058       .  S
Zn857       O866   2.079       .  S
Zn857       O873   2.045       .  S
Zn858       O861   1.971       .  S
Zn858       O863   2.055       .  S
Zn858       O865   2.033       .  S
Zn858       O869   2.039       .  S
Zn859       O861   1.941       .  S
Zn859       O864   1.991       .  S
Zn859       O867   1.967       .  S
Zn859       O870   2.012       .  S
Zn860       O861   1.957       .  S
Zn860       O868   2.029       .  S
Zn860       O871   1.998       .  S
Zn860       O872   1.975       .  S
O862        C874   1.278       .  A
O863        C875   1.277       .  A
O864        C876   1.269       .  A
O865        C874   1.275       .  A
O866        C876   1.280       .  A
O867        C875   1.266       .  A
O868        C877   1.274       .  A
O869        C878   1.275       .  A
O870        C877   1.270       .  A
O871        C878   1.269       .  A
O872        C879   1.268       .  A
O873        C879   1.278       .  A
C876        C926   1.480       .  S
C877        C933   1.474       .  S
C879        C930   1.463       .  S
Zn880       O884   1.950       .  S
Zn880       O885   1.990       .  S
Zn880       O889   1.991       .  S
Zn880       O896   2.009       .  S
Zn881       O884   1.970       .  S
Zn881       O886   2.046   1_554  S
Zn881       O888   2.050   1_554  S
Zn881       O892   2.046   1_554  S
Zn882       O884   1.968       .  S
Zn882       O887   2.027       .  S
Zn882       O890   2.014       .  S
Zn882       O893   2.007       .  S
Zn883       O884   1.972       .  S
Zn883       O891   2.039       .  S
Zn883       O894   2.032       .  S
Zn883       O895   2.046       .  S
O885        C897   1.268       .  A
O886        C898   1.277   1_556  A
O887        C899   1.275       .  A
O888        C897   1.277   1_556  A
O889        C899   1.270       .  A
O890        C898   1.272       .  A
O891        C900   1.276       .  A
O892        C901   1.279   1_556  A
O893        C900   1.270       .  A
O894        C901   1.277       .  A
O895        C902   1.276       .  A
O896        C902   1.271       .  A
C899        C917   1.466       .  S
C900        C913   1.471       .  S
C902        C922   1.477       .  S
C903        H904   1.110       .  S
C903        C909   1.538       .  S
C905        H906   1.111       .  S
C905        C912   1.536       .  S
C907        C910   1.370       .  D
C907        C934   1.482       .  S
C908       C1063   1.543       .  S
C908        C911   1.368       .  D
C908        C925   1.495       .  S
C909        C912   1.367       .  D
C909        C929   1.478       .  S
C910        C921   1.482       .  S
C911       C1065   1.538       .  S
C911        C918   1.475       .  S
C912        C914   1.482       .  S
C913        C914   1.336       .  D
C913        H915   1.085       .  S
C914        H916   1.087       .  S
C917        C918   1.337       .  D
C917        H919   1.088       .  S
C918        H920   1.086       .  S
C921        C922   1.340       .  D
C921        H923   1.086       .  S
C922        H924   1.088       .  S
C925        C926   1.341       .  D
C925        H927   1.086       .  S
C926        H928   1.087       .  S
C929        C930   1.333       .  D
C929        H931   1.087       .  S
C930        H932   1.087       .  S
C933        C934   1.340       .  D
C933        H935   1.087       .  S
C934        H936   1.086       .  S
C937        C938   1.345       .  D
C937        H939   1.085       .  S
C938        H940   1.089       .  S
C941        C942   1.335       .  D
C941        H943   1.078       .  S
C942        H944   1.086       .  S
C945        C946   1.339       .  D
C945        H947   1.086       .  S
C946        H948   1.084       .  S
C949        C950   1.341       .  D
C949        H951   1.087       .  S
C950        H952   1.086       .  S
C953        C954   1.334       .  D
C953        H955   1.088       .  S
C954        H956   1.087       .  S
C957        C958   1.343       .  D
C957        H959   1.086       .  S
C958        H960   1.087       .  S
Zn961       O965   1.974       .  S
Zn961       O966   2.058       .  S
Zn961       O970   2.068       .  S
Zn961       O977   2.057       .  S
Zn962       O965   1.954       .  S
Zn962       O967   1.992       .  S
Zn962       O969   1.998       .  S
Zn962       O973   1.999       .  S
Zn963       O965   1.961       .  S
Zn963       O968   2.012       .  S
Zn963       O971   2.031       .  S
Zn963       O974   2.012       .  S
Zn964       O965   1.967       .  S
Zn964       O972   2.035   1_556  S
Zn964       O975   2.022   1_556  S
Zn964       O976   2.034   1_556  S
O966        C978   1.280       .  A
O967        C979   1.268       .  A
O968        C980   1.273       .  A
O969        C978   1.270       .  A
O970        C980   1.280       .  A
O971        C979   1.273       .  A
O972        C981   1.276   1_554  A
O973        C982   1.270       .  A
O974        C981   1.273       .  A
O975        C982   1.273   1_554  A
O976        C983   1.276   1_554  A
O977        C983   1.279       .  A
C978       C1118   1.477       .  S
C979       C1113   1.467       .  S
C980       C1109   1.484       .  S
C981       C1377   1.472   1_546  S
C982       C1058   1.466   1_556  S
Zn984       O988   1.957       .  S
Zn984       O989   2.042       .  S
Zn984       O993   2.021       .  S
Zn984      O1000   2.036       .  S
Zn985       O988   1.942       .  S
Zn985       O990   1.992       .  S
Zn985       O992   2.000       .  S
Zn985       O996   2.018       .  S
Zn986       O988   1.959       .  S
Zn986       O991   2.009       .  S
Zn986       O994   2.012       .  S
Zn986       O997   2.002       .  S
Zn987       O988   1.951       .  S
Zn987       O995   2.004       .  S
Zn987       O998   2.023       .  S
Zn987       O999   2.021       .  S
O989       C1001   1.276       .  A
O990       C1002   1.269       .  A
O991       C1003   1.270       .  A
O992       C1001   1.272       .  A
O993       C1003   1.276       .  A
O994       C1002   1.273       .  A
O995       C1004   1.272       .  A
O996       C1005   1.272       .  A
O997       C1004   1.274       .  A
O998       C1005   1.272       .  A
O999       C1006   1.273       .  A
O1000      C1006   1.274       .  A
C1001      C1034   1.460       .  S
C1002      C1106   1.468       .  S
C1003      C1101   1.475       .  S
C1004      C1097   1.468       .  S
C1006      C1355   1.466   1_545  S
C1007      H1008   1.111       .  S
C1007      C1012   1.539   1_565  S
C1009      H1330   1.107       .  S
C1009      C1015   1.531       .  S
H1010      C1169   1.102       .  S
C1011      C1014   1.372       .  D
C1011      C1110   1.488       .  S
C1012      C1015   1.376       .  D
C1012      C1114   1.478       .  S
C1013      C1016   1.374       .  D
C1013      C1117   1.484       .  S
C1014      C1098   1.488       .  S
C1015      C1102   1.484       .  S
C1016      C1105   1.487       .  S
Zn1017     O1021   1.957       .  S
Zn1017     O1022   1.992       .  S
Zn1017     O1026   2.025       .  S
Zn1017     O1033   2.019       .  S
Zn1018     O1021   1.971       .  S
Zn1018     O1023   2.062       .  S
Zn1018     O1025   2.045       .  S
Zn1018     O1029   2.034       .  S
Zn1019     O1021   1.964       .  S
Zn1019     O1024   2.034       .  S
Zn1019     O1027   2.026       .  S
Zn1019     O1030   2.017       .  S
Zn1020     O1021   1.968       .  S
Zn1020     O1028   2.003       .  S
Zn1020     O1031   2.022       .  S
Zn1020     O1032   2.017       .  S
O1022      C1034   1.270       .  A
O1023      C1035   1.278       .  A
O1024      C1036   1.275       .  A
O1025      C1034   1.276       .  A
O1026      C1036   1.273       .  A
O1027      C1035   1.274       .  A
O1028      C1037   1.274       .  A
O1029      C1038   1.275       .  A
O1030      C1037   1.273       .  A
O1031      C1038   1.272       .  A
O1032      C1039   1.272       .  A
O1033      C1039   1.273       .  A
C1035      C1166   1.476       .  S
C1036      C1086   1.477       .  S
C1037      C1093   1.470       .  S
C1039      C1090   1.472       .  S
Zn1040     O1044   1.962       .  S
Zn1040     O1045   2.027       .  S
Zn1040     O1049   2.025       .  S
Zn1040     O1056   2.015       .  S
Zn1041     O1044   1.961       .  S
Zn1041     O1046   2.022   1_554  S
Zn1041     O1048   2.044   1_554  S
Zn1041     O1052   2.042   1_554  S
Zn1042     O1044   1.955       .  S
Zn1042     O1047   2.011       .  S
Zn1042     O1050   2.004       .  S
Zn1042     O1053   2.011       .  S
Zn1043     O1044   1.967       .  S
Zn1043     O1051   2.038       .  S
Zn1043     O1054   2.027       .  S
Zn1043     O1055   2.016       .  S
O1045      C1057   1.273       .  A
O1046      C1058   1.275   1_556  A
O1047      C1059   1.271       .  A
O1048      C1057   1.277   1_556  A
O1049      C1059   1.275       .  A
O1050      C1058   1.272       .  A
O1051      C1060   1.274       .  A
O1052      C1061   1.277   1_556  A
O1053      C1060   1.271       .  A
O1054      C1061   1.275       .  A
O1055      C1062   1.275       .  A
O1056      C1062   1.273       .  A
C1057      C1141   1.479   1_554  S
C1059      C1077   1.472       .  S
C1060      C1073   1.477       .  S
C1062      C1082   1.469       .  S
C1063      H1064   1.109   1_565  S
C1063      C1069   1.537   1_565  S
C1063      C1387   1.542       .  S
C1065      H1066   1.111       .  S
C1065      C1390   1.538       .  S
C1065      C1072   1.538   1_565  S
C1067      C1223   1.536       .  S
C1067      C1070   1.366       .  D
C1067      C1094   1.473       .  S
C1068      C1071   1.373       .  D
C1068      C1085   1.483       .  S
C1069      C1072   1.369       .  D
C1069      C1089   1.480       .  S
C1070      C1225   1.532       .  S
C1070      C1081   1.475       .  S
C1071      C1078   1.478       .  S
C1072      C1074   1.486       .  S
C1073      C1074   1.343       .  D
C1073      H1075   1.087       .  S
C1074      H1076   1.086       .  S
C1077      C1078   1.340       .  D
C1077      H1079   1.087       .  S
C1078      H1080   1.086       .  S
C1081      C1082   1.340       .  D
C1081      H1083   1.086       .  S
C1082      H1084   1.088       .  S
C1085      C1086   1.341       .  D
C1085      H1087   1.086       .  S
C1086      H1088   1.087       .  S
C1089      C1090   1.343       .  D
C1089      H1091   1.086       .  S
C1090      H1092   1.087       .  S
C1093      C1094   1.339       .  D
C1093      H1095   1.087       .  S
C1094      H1096   1.087       .  S
C1097      C1098   1.343       .  D
C1097      H1099   1.080       .  S
C1098      H1100   1.085       .  S
C1101      C1102   1.341       .  D
C1101      H1103   1.084       .  S
C1102      H1104   1.087       .  S
C1105      C1106   1.342       .  D
C1105      H1107   1.085       .  S
C1106      H1108   1.081       .  S
C1109      C1110   1.341       .  D
C1109      H1111   1.088   1_545  S
C1110      H1112   1.086       .  S
C1113      C1114   1.340       .  D
C1113      H1115   1.087       .  S
C1114      H1116   1.086       .  S
C1117      C1118   1.338       .  D
C1117      H1119   1.086       .  S
C1118      H1120   1.087       .  S
Zn1121     O1125   1.980       .  S
Zn1121     O1126   2.053       .  S
Zn1121     O1130   2.062       .  S
Zn1121     O1137   2.052       .  S
Zn1122     O1125   1.956       .  S
Zn1122     O1127   2.010       .  S
Zn1122     O1129   2.004       .  S
Zn1122     O1133   1.986       .  S
Zn1123     O1125   1.968       .  S
Zn1123     O1128   2.016       .  S
Zn1123     O1131   2.050       .  S
Zn1123     O1134   2.025       .  S
Zn1124     O1125   1.978       .  S
Zn1124     O1132   2.048   1_556  S
Zn1124     O1135   2.044   1_556  S
Zn1124     O1136   2.045   1_556  S
O1126      C1138   1.278       .  A
O1127      C1139   1.271       .  A
O1128      C1140   1.273       .  A
O1129      C1138   1.271       .  A
O1130      C1140   1.279       .  A
O1131      C1139   1.276       .  A
O1132      C1141   1.278   1_554  A
O1133      C1142   1.269       .  A
O1134      C1141   1.275       .  A
O1135      C1142   1.275   1_554  A
O1136      C1143   1.278   1_554  A
O1137      C1143   1.278       .  A
C1138      C1278   1.477       .  S
C1139      C1273   1.477       .  S
C1140      C1269   1.481       .  S
C1142      C1218   1.469   1_556  S
Zn1144     O1148   1.964       .  S
Zn1144     O1149   2.056       .  S
Zn1144     O1153   2.044       .  S
Zn1144     O1160   2.060       .  S
Zn1145     O1148   1.956       .  S
Zn1145     O1150   2.014       .  S
Zn1145     O1152   2.018       .  S
Zn1145     O1156   2.021       .  S
Zn1146     O1148   1.960       .  S
Zn1146     O1151   2.001       .  S
Zn1146     O1154   2.009       .  S
Zn1146     O1157   2.006       .  S
Zn1147     O1148   1.958       .  S
Zn1147     O1155   2.014       .  S
Zn1147     O1158   2.016       .  S
Zn1147     O1159   2.028       .  S
O1149      C1161   1.278       .  A
O1150      C1162   1.271       .  A
O1151      C1163   1.269       .  A
O1152      C1161   1.274       .  A
O1153      C1163   1.279       .  A
O1154      C1162   1.272       .  A
O1155      C1164   1.273       .  A
O1156      C1165   1.273       .  A
O1157      C1164   1.273       .  A
O1158      C1165   1.272       .  A
O1159      C1166   1.274       .  A
O1160      C1166   1.277       .  A
C1161      C1194   1.468       .  S
C1162      C1266   1.474       .  S
C1163      C1261   1.479       .  S
C1164      C1257   1.473       .  S
C1167      H1168   1.111       .  S
C1167      C1172   1.547       .  S
C1169      C1175   1.530       .  S
H1170      C1329   1.100       .  S
C1171      C1174   1.373       .  D
C1171      C1270   1.489       .  S
C1172      C1175   1.379       .  D
C1172      C1274   1.485       .  S
C1173      C1176   1.373       .  D
C1173      C1277   1.485       .  S
C1174      C1258   1.492       .  S
C1175      C1262   1.491       .  S
C1176      C1265   1.493       .  S
Zn1177     O1181   1.965       .  S
Zn1177     O1182   2.031       .  S
Zn1177     O1186   2.010       .  S
Zn1177     O1193   2.018       .  S
Zn1178     O1181   1.962       .  S
Zn1178     O1183   2.048       .  S
Zn1178     O1185   2.034       .  S
Zn1178     O1189   2.037       .  S
Zn1179     O1181   1.964       .  S
Zn1179     O1184   2.032       .  S
Zn1179     O1187   2.028       .  S
Zn1179     O1190   2.047       .  S
Zn1180     O1181   1.963       .  S
Zn1180     O1188   2.019       .  S
Zn1180     O1191   2.014       .  S
Zn1180     O1192   1.996       .  S
O1182      C1194   1.274       .  A
O1183      C1195   1.277       .  A
O1184      C1196   1.276       .  A
O1185      C1194   1.275       .  A
O1186      C1196   1.271       .  A
O1187      C1195   1.274       .  A
O1188      C1197   1.274       .  A
O1189      C1198   1.275       .  A
O1190      C1197   1.276       .  A
O1191      C1198   1.272       .  A
O1192      C1199   1.269       .  A
O1193      C1199   1.274       .  A
C1195      C1326   1.471       .  S
C1196      C1246   1.475       .  S
C1197      C1253   1.481       .  S
C1199      C1250   1.466       .  S
Zn1200     O1204   1.961       .  S
Zn1200     O1205   2.026       .  S
Zn1200     O1209   2.003       .  S
Zn1200     O1216   2.031       .  S
Zn1201     O1204   1.944       .  S
Zn1201     O1206   2.017       .  S
Zn1201     O1208   2.037   1_554  S
Zn1201     O1212   2.032       .  S
Zn1202     O1204   1.961       .  S
Zn1202     O1207   2.000       .  S
Zn1202     O1210   2.022       .  S
Zn1202     O1213   2.013       .  S
Zn1203     O1204   1.950       .  S
Zn1203     O1211   2.002       .  S
Zn1203     O1214   2.013       .  S
Zn1203     O1215   1.988       .  S
O1205      C1217   1.274       .  A
O1206      C1218   1.276       .  A
O1207      C1219   1.273       .  A
O1208      C1217   1.275   1_556  A
O1209      C1219   1.270       .  A
O1210      C1218   1.274       .  A
O1211      C1220   1.273       .  A
O1212      C1221   1.277       .  A
O1213      C1220   1.270       .  A
O1214      C1221   1.272       .  A
O1215      C1222   1.269       .  A
O1216      C1222   1.277       .  A
C1217      C1301   1.477   1_554  S
C1219      C1237   1.463       .  S
C1220      C1233   1.474       .  S
C1222      C1242   1.468       .  S
C1223      H1224   1.112       .  S
C1223      C1229   1.536       .  S
C1225      H1226   1.111       .  S
C1225      C1232   1.526       .  S
C1227      C1383   1.531       .  S
C1227      C1230   1.375       .  D
C1227      C1254   1.482       .  S
C1228      C1231   1.369       .  D
C1228      C1245   1.481       .  S
C1229      C1232   1.369       .  D
C1229      C1249   1.472       .  S
C1230      C1385   1.534       .  S
C1230      C1241   1.474       .  S
C1231      C1238   1.469       .  S
C1232      C1234   1.472       .  S
C1233      C1234   1.338       .  D
C1233      H1235   1.087       .  S
C1234      H1236   1.086       .  S
C1237      C1238   1.336       .  D
C1237      H1239   1.087       .  S
C1238      H1240   1.086       .  S
C1241      C1242   1.334       .  D
C1241      H1243   1.086       .  S
C1242      H1244   1.087       .  S
C1245      C1246   1.340       .  D
C1245      H1247   1.086       .  S
C1246      H1248   1.086       .  S
C1249      C1250   1.336       .  D
C1249      H1251   1.086       .  S
C1250      H1252   1.087       .  S
C1253      C1254   1.345       .  D
C1253      H1255   1.087       .  S
C1254      H1256   1.086       .  S
C1257      C1258   1.346       .  D
C1257      H1259   1.080       .  S
C1258      H1260   1.085       .  S
C1261      C1262   1.339       .  D
C1261      H1263   1.083       .  S
C1262      H1264   1.087       .  S
C1265      C1266   1.346       .  D
C1265      H1267   1.085       .  S
C1266      H1268   1.082       .  S
C1269      C1270   1.341       .  D
C1269      H1271   1.087       .  S
C1270      H1272   1.086       .  S
C1273      C1274   1.340       .  D
C1273      H1275   1.087       .  S
C1274      H1276   1.086       .  S
C1277      C1278   1.338       .  D
C1277      H1279   1.086       .  S
C1278      H1280   1.086       .  S
Zn1281     O1285   1.969       .  S
Zn1281     O1286   2.053       .  S
Zn1281     O1290   2.048       .  S
Zn1281     O1297   2.049       .  S
Zn1282     O1285   1.950       .  S
Zn1282     O1287   1.970       .  S
Zn1282     O1289   1.980       .  S
Zn1282     O1293   1.985       .  S
Zn1283     O1285   1.959       .  S
Zn1283     O1288   2.002       .  S
Zn1283     O1291   2.024       .  S
Zn1283     O1294   2.024       .  S
Zn1284     O1285   1.957       .  S
Zn1284     O1292   2.040   1_556  S
Zn1284     O1295   2.014   1_556  S
Zn1284     O1296   2.040   1_556  S
O1286      C1298   1.278       .  A
O1287      C1299   1.265       .  A
O1288      C1300   1.271       .  A
O1289      C1298   1.267       .  A
O1290      C1300   1.278       .  A
O1291      C1299   1.273       .  A
O1292      C1301   1.277   1_554  A
O1293      C1302   1.268       .  A
O1294      C1301   1.274       .  A
O1295      C1302   1.273   1_554  A
O1296      C1303   1.278   1_554  A
O1297      C1303   1.279       .  A
C1298      C1438   1.472       .  S
C1299      C1433   1.458       .  S
C1300      C1429   1.474       .  S
C1302      C1378   1.460   1_556  S
Zn1304     O1308   1.967       .  S
Zn1304     O1309   2.040       .  S
Zn1304     O1313   2.029       .  S
Zn1304     O1320   2.037       .  S
Zn1305     O1308   1.952       .  S
Zn1305     O1310   2.017       .  S
Zn1305     O1312   2.002       .  S
Zn1305     O1316   2.028       .  S
Zn1306     O1308   1.961       .  S
Zn1306     O1311   1.991       .  S
Zn1306     O1314   2.013       .  S
Zn1306     O1317   2.006       .  S
Zn1307     O1308   1.957       .  S
Zn1307     O1315   2.022       .  S
Zn1307     O1318   2.030       .  S
Zn1307     O1319   2.034       .  S
O1309      C1321   1.276       .  A
O1310      C1322   1.272       .  A
O1311      C1323   1.268       .  A
O1312      C1321   1.272       .  A
O1313      C1323   1.276       .  A
O1314      C1322   1.272       .  A
O1315      C1324   1.274       .  A
O1316      C1325   1.273       .  A
O1317      C1324   1.274       .  A
O1318      C1325   1.274       .  A
O1319      C1326   1.275       .  A
O1320      C1326   1.274       .  A
C1321      C1354   1.460       .  S
C1322      C1426   1.475       .  S
C1323      C1421   1.469       .  S
C1324      C1417   1.475       .  S
C1327      H1328   1.112       .  S
C1327      C1332   1.535       .  S
C1329      C1335   1.527       .  S
C1331      C1334   1.373       .  D
C1331      C1430   1.483       .  S
C1332      C1335   1.374       .  D
C1332      C1434   1.472       .  S
C1333      C1336   1.376       .  D
C1333      C1437   1.479       .  S
C1334      C1418   1.493       .  S
C1335      C1422   1.482       .  S
C1336      C1425   1.493       .  S
Zn1337     O1341   1.959       .  S
Zn1337     O1342   2.016       .  S
Zn1337     O1346   2.026       .  S
Zn1337     O1353   2.029       .  S
Zn1338     O1341   1.956       .  S
Zn1338     O1343   2.033       .  S
Zn1338     O1345   2.029       .  S
Zn1338     O1349   2.040       .  S
Zn1339     O1341   1.960       .  S
Zn1339     O1344   2.019       .  S
Zn1339     O1347   2.028       .  S
Zn1339     O1350   2.043       .  S
Zn1340     O1341   1.932       .  S
Zn1340     O1348   1.967       .  S
Zn1340     O1351   1.978       .  S
Zn1340     O1352   1.971       .  S
O1342      C1354   1.273       .  A
O1343      C1355   1.276       .  A
O1344      C1356   1.275       .  A
O1345      C1354   1.275       .  A
O1346      C1356   1.274       .  A
O1347      C1355   1.275       .  A
O1348      C1357   1.266       .  A
O1349      C1358   1.274       .  A
O1350      C1357   1.276       .  A
O1351      C1358   1.266       .  A
O1352      C1359   1.265       .  A
O1353      C1359   1.276       .  A
C1356      C1406   1.477       .  S
C1357      C1413   1.464       .  S
C1359      C1410   1.463       .  S
Zn1360     O1364   1.970       .  S
Zn1360     O1365   2.035       .  S
Zn1360     O1369   2.025       .  S
Zn1360     O1376   2.039       .  S
Zn1361     O1364   1.959       .  S
Zn1361     O1366   2.016   1_554  S
Zn1361     O1368   2.017   1_554  S
Zn1361     O1372   2.030   1_554  S
Zn1362     O1364   1.949       .  S
Zn1362     O1367   1.982       .  S
Zn1362     O1370   1.979       .  S
Zn1362     O1373   2.000       .  S
Zn1363     O1364   1.953       .  S
Zn1363     O1371   2.034       .  S
Zn1363     O1374   2.027       .  S
Zn1363     O1375   2.007       .  S
O1365      C1377   1.276       .  A
O1366      C1378   1.272   1_556  A
O1367      C1379   1.268       .  A
O1368      C1377   1.275   1_556  A
O1369      C1379   1.274       .  A
O1370      C1378   1.267       .  A
O1371      C1380   1.275       .  A
O1372      C1381   1.275   1_556  A
O1373      C1380   1.270       .  A
O1374      C1381   1.275       .  A
O1375      C1382   1.272       .  A
O1376      C1382   1.276       .  A
C1379      C1397   1.463       .  S
C1380      C1393   1.469       .  S
C1382      C1402   1.473       .  S
C1383      H1384   1.112       .  S
C1383      C1389   1.538       .  S
C1385      H1386   1.112       .  S
C1385      C1392   1.526       .  S
C1387      C1390   1.372       .  D
C1387      C1414   1.483       .  S
C1388      C1391   1.366       .  D
C1388      C1405   1.477       .  S
C1389      C1392   1.373       .  D
C1389      C1409   1.469       .  S
C1390      C1401   1.484       .  S
C1391      C1398   1.472       .  S
C1392      C1394   1.481       .  S
C1393      C1394   1.339       .  D
C1393      H1395   1.087       .  S
C1394      H1396   1.085       .  S
C1397      C1398   1.334       .  D
C1397      H1399   1.088       .  S
C1398      H1400   1.087       .  S
C1401      C1402   1.341       .  D
C1401      H1403   1.086       .  S
C1402      H1404   1.087       .  S
C1405      C1406   1.341       .  D
C1405      H1407   1.086       .  S
C1406      H1408   1.087       .  S
C1409      C1410   1.332       .  D
C1409      H1411   1.086       .  S
C1410      H1412   1.087       .  S
C1413      C1414   1.338       .  D
C1413      H1415   1.086       .  S
C1414      H1416   1.086       .  S
C1417      C1418   1.346       .  D
C1417      H1419   1.081       .  S
C1418      H1420   1.085       .  S
C1421      C1422   1.337       .  D
C1421      H1423   1.084       .  S
C1422      H1424   1.087       .  S
C1425      C1426   1.347       .  D
C1425      H1427   1.086       .  S
C1426      H1428   1.083       .  S
C1429      C1430   1.338       .  D
C1429      H1431   1.086       .  S
C1430      H1432   1.086       .  S
C1433      C1434   1.336       .  D
C1433      H1435   1.087       .  S
C1434      H1436   1.086       .  S
C1437      C1438   1.334       .  D
C1437      H1439   1.086       .  S
C1438      H1440   1.087       .  S
