geometry optimzed in LAMMPS
_audit_creation_date              2020-11-30 
_audit_creation_method            'lammps2cif' 
_symmetry_space_group_name_H-M    'P1' 
_symmetry_Int_Tables_number       1 
_symmetry_cell_setting            triclinic 
loop_ 
_symmetry_equiv_pos_as_xyz 
  x,y,z 
_cell_length_a                    47.32871355 
_cell_length_b                    47.19415969130924 
_cell_length_c                    44.02905722685574 
_cell_angle_alpha                 90.51572724465969 
_cell_angle_beta                  89.6258733956568 
_cell_angle_gamma                 120.76416044828272 
loop_ 
_atom_site_label 
_atom_site_type_symbol 
_atom_site_fract_x 
_atom_site_fract_y 
_atom_site_fract_z 
_atom_site_charge 
O1          O  0.28667133  0.96900319  0.11315195    -0.85600
O2          O  0.31330650  0.93082375  0.10859293    -0.82700
C3          C  0.31634652  0.90613828  0.10531189     0.97800
O4          O  0.29925937  0.88420947  0.08541885    -0.82700
O5          O  0.23606567  0.85355939  0.10939431    -0.85400
C6          C  0.20852837  0.84896265  0.11776873     1.02300
O7          O  0.19791132  0.86675722  0.10721970    -0.78100
O8          O  0.24036669  0.92766766  0.13015527    -0.78300
C9          C  0.26702987  0.95408383  0.13495848     1.02300
O10         O  0.28139204  0.96608632  0.04717801    -0.85600
O11         O  0.31413264  0.93297683  0.04273549    -0.82700
C12         C  0.29728698  0.91272053  0.02185078     0.97800
O13         O  0.26983496  0.88782171  0.02787230    -0.82700
O14         O  0.20760515  0.85289994  0.05145557    -0.85300
C15         C  0.19281947  0.86720680  0.04158416     1.02300
O16         O  0.20256465  0.89660721  0.04894616    -0.78200
O17         O  0.23937873  0.95901991  0.07403597    -0.78300
C18         C  0.26109703  0.97470893  0.05391602     1.02300
Cr19       Cr  0.29617342  0.94711340  0.07786510     1.93700
Cr20       Cr  0.25374265  0.87234741  0.06910323     1.93200
Cr21       Cr  0.22250265  0.91248825  0.08927918     1.39100
O22         O  0.25749318  0.91054091  0.07881971    -1.23400
O23         O  0.35043054  0.96076966  0.78508487    -0.85600
O24         O  0.38579164  0.02703972  0.78260832    -0.82700
C25         C  0.40693964  0.05639016  0.77704301     0.97800
O26         O  0.42782323  0.06262274  0.75604350    -0.82700
O27         O  0.46238740  0.03273632  0.77822299    -0.85400
C28         C  0.47018151  0.01121795  0.78309395     1.02300
O29         O  0.45362279  0.98257249  0.77109785    -0.78100
O30         O  0.39275390  0.95575188  0.79616651    -0.78300
C31         C  0.36671337  0.95472268  0.80409169     1.02300
O32         O  0.34825146  0.96027434  0.71911740    -0.85600
O33         O  0.37886322  0.02562491  0.71601375    -0.82700
C34         C  0.39770023  0.02935995  0.69373486     0.97800
O35         O  0.42455941  0.03072622  0.69828811    -0.82700
O36         O  0.46419110  0.00924231  0.71855290    -0.85300
C37         C  0.45231264  0.98083439  0.70652379     1.02300
O38         O  0.42313732  0.95862018  0.71227974    -0.78200
O39         O  0.36002795  0.92529428  0.73871566    -0.78300
C40         C  0.34222490  0.93131706  0.72145974     1.02300
Cr41       Cr  0.36846857  0.99355064  0.75063329     1.93700
Cr42       Cr  0.44216013  0.03150041  0.73854229     1.93200
Cr43       Cr  0.40703893  0.95791042  0.75400239     1.39100
O44         O  0.40583541  0.99422053  0.74780711    -1.23400
O45         O  0.02160652  0.31710988  0.11786995    -0.85600
O46         O  0.05881042  0.38338160  0.11080714    -0.82700
C47         C  0.08079607  0.41160514  0.10272318     0.97800
O48         O  0.10342180  0.41514329  0.08463880    -0.82700
O49         O  0.13631642  0.38589281  0.11103068    -0.85400
C50         C  0.14150544  0.36371982  0.12030555     1.02300
O51         O  0.12386116  0.33412456  0.11074084    -0.78100
O52         O  0.06321682  0.31316069  0.13376601    -0.78300
C53         C  0.03694943  0.31281585  0.13910696     1.02300
O54         O  0.02208306  0.31113888  0.05220088    -0.85600
O55         O  0.05376869  0.37674422  0.04567948    -0.82700
C56         C  0.07394054  0.38120029  0.02460594     0.97800
O57         O  0.09919105  0.37956559  0.02980123    -0.82700
O58         O  0.13597727  0.35539341  0.05429222    -0.85300
C59         C  0.12200184  0.32577739  0.04462810     1.02300
O60         O  0.09300554  0.30522641  0.05252665    -0.78200
O61         O  0.03061417  0.27745336  0.07860788    -0.78300
C62         C  0.01351449  0.28225543  0.05945547     1.02300
Cr63       Cr  0.04174484  0.34698726  0.08173438     1.93700
Cr64       Cr  0.11604961  0.38158411  0.07087216     1.93200
Cr65       Cr  0.07768992  0.30995735  0.09294767     1.39100
O66         O  0.07858467  0.34632259  0.08203137    -1.23400
O67         O  0.34363454  0.29523100  0.88021257    -0.85600
O68         O  0.27759794  0.26381388  0.88200048    -0.82700
C69         C  0.27140582  0.24323470  0.86075120     0.97800
O70         O  0.27249220  0.21754426  0.86546104    -0.82700
O71         O  0.29966340  0.18173997  0.88632458    -0.85400
C72         C  0.32814775  0.19472230  0.87426265     1.02300
O73         O  0.34939786  0.22438621  0.87971477    -0.78100
O74         O  0.38011551  0.28803564  0.90325296    -0.78300
C75         C  0.37298992  0.30302118  0.88378672     1.02300
O76         O  0.34703781  0.30040134  0.94604989    -0.85600
O77         O  0.28165321  0.26298380  0.94733744    -0.82700
C78         C  0.25240293  0.24021709  0.94445306     0.97800
O79         O  0.24512712  0.21718281  0.92516467    -0.82700
O80         O  0.27764192  0.18533931  0.94646227    -0.85300
C81         C  0.30068906  0.18003871  0.95193693     1.02300
O82         O  0.32861631  0.19749069  0.93944496    -0.78200
O83         O  0.35294764  0.25986350  0.96182611    -0.78300
C84         C  0.35376499  0.28655625  0.96696952     1.02300
Cr85       Cr  0.31248242  0.27799110  0.91381680     1.93700
Cr86       Cr  0.27611115  0.20312174  0.90638124     1.93200
Cr87       Cr  0.35021372  0.24240395  0.92051063     1.39100
O88         O  0.31284714  0.24104116  0.91366395    -1.23400
O89         O  0.94963911  0.31104662  0.45364710    -0.85600
O90         O  0.98146840  0.27887317  0.43924973    -0.82700
C91         C  0.98708388  0.25716287  0.42961037     0.97800
O92         O  0.96788952  0.23570888  0.41056564    -0.82700
O93         O  0.90639758  0.19901173  0.43827400    -0.85400
C94         C  0.87775158  0.19016777  0.44735280     1.02300
O95         O  0.86465326  0.20699217  0.44039010    -0.78100
O96         O  0.90356536  0.26726158  0.46833414    -0.78300
C97         C  0.92972623  0.29385908  0.47445845     1.02300
O98         O  0.94185626  0.31763936  0.38967754    -0.85600
O99         O  0.97698886  0.28846385  0.37530800    -0.82700
C100        C  0.96065419  0.26918806  0.35370599     0.97800
O101        O  0.93449758  0.24245557  0.35875823    -0.82700
O102        O  0.87490136  0.20128924  0.38299287    -0.85300
C103        C  0.85861389  0.21453362  0.37486881     1.02300
O104        O  0.86449571  0.24144962  0.38670003    -0.78200
O105        O  0.89768562  0.30170215  0.41727787    -0.78300
C106        C  0.91919105  0.32192227  0.39891556     1.02300
Cr107      Cr  0.95953769  0.29602517  0.41440004     1.93700
Cr108      Cr  0.92116631  0.22226164  0.39892625     1.93200
Cr109      Cr  0.88533034  0.25467017  0.42717241     1.39100
O110        O  0.92212327  0.25774435  0.41360903    -1.23400
O111        O  0.38170301  0.32618818  0.24210744    -0.85600
O112        O  0.36112283  0.35082174  0.28925314    -0.82700
C113        C  0.35995865  0.37206052  0.30608111     0.97800
O114        O  0.36815309  0.40029729  0.29582441    -0.82700
O115        O  0.43589667  0.43323265  0.29487090    -0.85400
C116        C  0.46336051  0.43612010  0.28834184     1.02300
O117        O  0.46773635  0.42660359  0.26276484    -0.78100
O118        O  0.43078614  0.35843939  0.25953211    -0.78300
C119        C  0.40563393  0.32986760  0.25748899     1.02300
O120        O  0.36351584  0.35852709  0.19945576    -0.85600
O121        O  0.33388631  0.37426077  0.24619343    -0.82700
C122        C  0.33887015  0.40107586  0.23550571     0.97800
O123        O  0.36778223  0.42581005  0.23580103    -0.82700
O124        O  0.43600186  0.46098741  0.23746560    -0.85300
C125        C  0.44809112  0.45925113  0.21234392     1.02300
O126        O  0.44616559  0.43253050  0.20389485    -0.78200
O127        O  0.41278016  0.36453850  0.19693865    -0.78300
C128        C  0.38593540  0.35775075  0.18431325     1.02300
Cr129      Cr  0.36294554  0.35537606  0.24440586     1.93700
Cr130      Cr  0.40183071  0.42745796  0.26454518     1.93200
Cr131      Cr  0.43663878  0.39519503  0.23188610     1.39100
O132        O  0.40081622  0.39316173  0.24682691    -1.23400
O133        O  0.00296908  0.36710756  0.70474275    -0.85600
O134        O  0.05316971  0.39006433  0.74836614    -0.82700
C135        C  0.07172502  0.41283532  0.73087604     0.97800
O136        O  0.06612508  0.43588083  0.72681590    -0.82700
O137        O  0.03371679  0.46976381  0.72450246    -0.85400
C138        C  0.01169482  0.46342815  0.70514092     1.02300
O139        O  0.98440112  0.43656107  0.70549219    -0.78100
O140        O  0.95730179  0.36937407  0.70451299    -0.78300
C141        C  0.97790053  0.36369056  0.69109316     1.02300
O142        O  0.95701250  0.33732549  0.75146920    -0.85600
O143        O  0.00655765  0.37271470  0.79407934    -0.82700
C144        C  0.03022217  0.39751833  0.80704988     0.97800
O145        O  0.04890638  0.42405743  0.79262323    -0.82700
O146        O  0.01612579  0.45828875  0.78707357    -0.85300
C147        C  0.98759764  0.45449600  0.78629480     1.02300
O148        O  0.96627268  0.43481478  0.76760497    -0.78200
O149        O  0.93909823  0.36775425  0.76952122    -0.78300
C150        C  0.93732123  0.34022778  0.76843902     1.02300
Cr151      Cr  0.00473678  0.36965321  0.74950695     1.93700
Cr152      Cr  0.03855750  0.44396299  0.75708256     1.93200
Cr153      Cr  0.96462878  0.40221999  0.73764921     1.39100
O154        O  0.00256029  0.40600388  0.74817232    -1.23400
O155        O  0.31028029  0.01260350  0.37240963    -0.85600
O156        O  0.37368433  0.05235935  0.39017063    -0.82700
C157        C  0.39933386  0.07478231  0.40235752     0.97800
O158        O  0.39762061  0.09256924  0.42320557    -0.82700
O159        O  0.37062578  0.12650791  0.39525854    -0.85400
C160        C  0.34951042  0.13090169  0.38214339     1.02300
O161        O  0.31894183  0.11103674  0.38646680    -0.78100
O162        O  0.30436736  0.05368655  0.35848642    -0.78300
C163        C  0.30619660  0.02873832  0.35177657     1.02300
O164        O  0.29175805  0.00115439  0.43531481    -0.85600
O165        O  0.35549046  0.03662762  0.45398277    -0.82700
C166        C  0.35416022  0.05309463  0.47639555     0.97800
O167        O  0.35087689  0.07754288  0.47197740    -0.82700
O168        O  0.33011273  0.11645318  0.44755432    -0.85300
C169        C  0.29931442  0.10110644  0.45209234     1.02300
O170        O  0.28079769  0.07414741  0.43857416    -0.78200
O171        O  0.26151782  0.01446489  0.40829446    -0.78300
C172        C  0.26413652  0.99434464  0.42546762     1.02300
Cr173      Cr  0.33261053  0.02861465  0.41313422     1.93700
Cr174      Cr  0.36001344  0.10043394  0.43301638     1.93200
Cr175      Cr  0.29394515  0.06319693  0.39931974     1.39100
O176        O  0.32866749  0.06401076  0.41521786    -1.23400
O177        O  0.31542050  0.35904807  0.58351853    -0.85600
O178        O  0.28100039  0.31288974  0.62922512    -0.82700
C179        C  0.25653779  0.28997293  0.64319757     0.97800
O180        O  0.22968409  0.27117144  0.62944337    -0.82700
O181        O  0.19978810  0.30799221  0.62210220    -0.85400
C182        C  0.20165827  0.33507780  0.61568514     1.02300
O183        O  0.21797938  0.35171152  0.59307553    -0.78100
O184        O  0.28568011  0.37960818  0.59721364    -0.78300
C185        C  0.31312435  0.38110440  0.59732151     1.02300
O186        O  0.28571180  0.30965816  0.53906083    -0.85600
O187        O  0.26140996  0.26275754  0.58570315    -0.82700
C188        C  0.23760439  0.24294768  0.56961164     0.97800
O189        O  0.21434721  0.24840333  0.56578195    -0.82700
O190        O  0.18217128  0.28328529  0.56136425    -0.85300
C191        C  0.18861595  0.30096005  0.53805449     1.02300
O192        O  0.21676049  0.32637229  0.53432401    -0.78200
O193        O  0.28404693  0.35533025  0.53519309    -0.78300
C194        C  0.28908095  0.33363470  0.52337809     1.02300
Cr195      Cr  0.28312678  0.31133116  0.58416685     1.93700
Cr196      Cr  0.20940387  0.28018403  0.59370921     1.93200
Cr197      Cr  0.25099472  0.35050878  0.56625691     1.39100
O198        O  0.24728438  0.31405312  0.58139240    -1.23400
O199        O  0.00305248  0.71828615  0.55574225    -0.85600
O200        O  0.02679169  0.67793229  0.54865071    -0.82700
C201        C  0.04725135  0.69066294  0.52704769     0.97800
O202        O  0.07515720  0.71579824  0.53144432    -0.82700
O203        O  0.11852503  0.77812925  0.55014326    -0.85400
C204        C  0.10662795  0.79458396  0.53891263     1.02300
O205        O  0.08017608  0.79117000  0.54940516    -0.78100
O206        O  0.02003482  0.76491148  0.57960485    -0.78300
C207        C  0.00098910  0.74333552  0.56058287     1.02300
O208        O  0.00753941  0.71697453  0.62184793    -0.85600
O209        O  0.03549777  0.67915282  0.61367632    -0.82700
C210        C  0.05577395  0.67060653  0.60626696     0.97800
O211        O  0.07872843  0.68781093  0.58766373    -0.82700
O212        O  0.11832445  0.75232994  0.61028900    -0.85300
C213        C  0.12811403  0.78211052  0.61648393     1.02300
O214        O  0.11308355  0.79558271  0.60554891    -0.78200
O215        O  0.05332609  0.76264944  0.63368866    -0.78300
C216        C  0.02586924  0.73859482  0.64130906     1.02300
Cr217      Cr  0.02121534  0.70086319  0.58496980     1.93700
Cr218      Cr  0.09516543  0.73364676  0.57106320     1.93200
Cr219      Cr  0.06612653  0.77562585  0.59139152     1.39100
O220        O  0.06079262  0.73650182  0.58260277    -1.23400
O221        O  0.70382716  0.97706867  0.55687175    -0.85600
O222        O  0.63840207  0.94767233  0.55425028    -0.82700
C223        C  0.63301957  0.92759342  0.53251502     0.97800
O224        O  0.63285679  0.90131434  0.53737068    -0.82700
O225        O  0.65418691  0.86171563  0.55836204    -0.85400
C226        C  0.68258432  0.87344631  0.54655375     1.02300
O227        O  0.70554655  0.90180831  0.55406160    -0.78100
O228        O  0.73823969  0.96540851  0.57810473    -0.78300
C229        C  0.73225738  0.98171457  0.55886269     1.02300
O230        O  0.70400231  0.97798042  0.62311005    -0.85600
O231        O  0.63806908  0.94272994  0.62068288    -0.82700
C232        C  0.60870735  0.92158445  0.61533915     0.97800
O233        O  0.60209261  0.89987402  0.59495697    -0.82700
O234        O  0.63063286  0.86555287  0.61795223    -0.85300
C235        C  0.65128229  0.85703410  0.62360470     1.02300
O236        O  0.68021342  0.87309442  0.61252345    -0.78200
O237        O  0.70682636  0.93507800  0.63672806    -0.78300
C238        C  0.70809535  0.96162973  0.64358527     1.02300
Cr239      Cr  0.67099896  0.95874920  0.58868655     1.93700
Cr240      Cr  0.63242040  0.88465487  0.57793102     1.93200
Cr241      Cr  0.70547290  0.91930140  0.59489188     1.39100
O242        O  0.66976600  0.92092955  0.58699195    -1.23400
O243        O  0.02648921  0.65376471  0.25097503    -0.85600
O244        O  0.98177192  0.62380444  0.20393450    -0.82700
C245        C  0.95984649  0.60082047  0.18778913     0.97800
O246        O  0.94019085  0.57278814  0.19932520    -0.82700
O247        O  0.97725524  0.54342947  0.20326343    -0.85400
C248        C  0.00377471  0.54441080  0.20961511     1.02300
O249        O  0.01815809  0.55637585  0.23453965    -0.78100
O250        O  0.04632363  0.62372002  0.23557646    -0.78300
C251        C  0.04826169  0.65138045  0.23675666     1.02300
O252        O  0.97563714  0.62070370  0.29410882    -0.85600
O253        O  0.93018829  0.59964969  0.24647997    -0.82700
C254        C  0.90982461  0.57368652  0.25982301     0.97800
O255        O  0.91538444  0.55028666  0.26133698    -0.82700
O256        O  0.95050500  0.51822513  0.26234632    -0.85300
C257        C  0.96611532  0.52303376  0.28691314     1.02300
O258        O  0.99044438  0.55115572  0.29332807    -0.78200
O259        O  0.02098092  0.61856206  0.29734077    -0.78300
C260        C  0.99970050  0.62393170  0.30942488     1.02300
Cr261      Cr  0.97862913  0.62172378  0.24890944     1.93700
Cr262      Cr  0.94816386  0.54889602  0.23282933     1.93200
Cr263      Cr  0.01636892  0.58740144  0.26400967     1.39100
O264        O  0.98103486  0.58552977  0.24861846    -1.23400
O265        O  0.67299070  0.62205301  0.46191055    -0.85600
O266        O  0.70415315  0.68638025  0.44605293    -0.82700
C267        C  0.72381736  0.71402707  0.43498851     0.97800
O268        O  0.74413832  0.71675338  0.41454535    -0.82700
O269        O  0.78461663  0.69783282  0.44173015    -0.85400
C270        C  0.79421384  0.67979416  0.45301514     1.02300
O271        O  0.77825149  0.64882928  0.44838507    -0.78100
O272        O  0.71935218  0.62727673  0.47713487    -0.78300
C273        C  0.69166884  0.62351799  0.48318382     1.02300
O274        O  0.66632776  0.60572516  0.39784539    -0.85600
O275        O  0.69204381  0.66993650  0.38218560    -0.82700
C276        C  0.71013288  0.67224348  0.35982716     0.97800
O277        O  0.73670633  0.67297447  0.36408172    -0.82700
O278        O  0.78100698  0.65957043  0.38833824    -0.85300
C279        C  0.76900131  0.62887508  0.38369251     1.02300
O280        O  0.74336489  0.60787400  0.39733691    -0.78200
O281        O  0.68358628  0.58065811  0.42754612    -0.78300
C282        C  0.66328838  0.57959761  0.40801899     1.02300
Cr283      Cr  0.68674825  0.64628279  0.42188432     1.93700
Cr284      Cr  0.75919565  0.68438088  0.40349063     1.93200
Cr285      Cr  0.73060182  0.61827498  0.43652170     1.39100
O286        O  0.72556169  0.64958235  0.42048927    -1.23400
O287        O  0.60185280  0.64021765  0.79095763    -0.85600
O288        O  0.63137364  0.60407245  0.78860400    -0.82700
C289        C  0.63785626  0.58182336  0.78353906     0.97800
O290        O  0.62181614  0.56013545  0.76325727    -0.82700
O291        O  0.55745078  0.52705579  0.78588408    -0.85400
C292        C  0.52834433  0.51977788  0.79137874     1.02300
O293        O  0.51704518  0.53672423  0.78020972    -0.78100
O294        O  0.55453084  0.59791969  0.80457837    -0.78300
C295        C  0.58031921  0.62442430  0.81120164     1.02300
O296        O  0.60157780  0.63903082  0.72485516    -0.85600
O297        O  0.63602743  0.60864710  0.72227178    -0.82700
C298        C  0.62050434  0.58890034  0.70057062     0.97800
O299        O  0.59372486  0.56280359  0.70561128    -0.82700
O300        O  0.53135675  0.52457953  0.72593492    -0.85300
C301        C  0.51560078  0.53715459  0.71450136     1.02300
O302        O  0.52249956  0.56579242  0.72214929    -0.78200
O303        O  0.55588581  0.62891147  0.74688878    -0.78300
C304        C  0.57852735  0.64461811  0.72744992     1.02300
Cr305      Cr  0.61506389  0.62040268  0.75667571     1.93700
Cr306      Cr  0.57632787  0.54620236  0.74597345     1.93200
Cr307      Cr  0.54023079  0.58265981  0.76296420     1.39100
O308        O  0.57715463  0.58307801  0.75516691    -1.23400
O309        O  0.68359816  0.04537653  0.88919673    -0.85600
O310        O  0.71668651  0.01306535  0.88392013    -0.82700
C311        C  0.73718954  0.03002615  0.86325008     0.97800
O312        O  0.76230008  0.05721493  0.86979566    -0.82700
O313        O  0.79798001  0.11858646  0.89446193    -0.85400
C314        C  0.78548378  0.13493884  0.88434427     1.02300
O315        O  0.75647128  0.12693082  0.89159232    -0.78100
O316        O  0.69220014  0.08924691  0.91427729    -0.78300
C317        C  0.67681557  0.06746965  0.89383192     1.02300
O318        O  0.68146361  0.04029461  0.95565855    -0.85600
O319        O  0.71937243  0.01345565  0.95033812    -0.82700
C320        C  0.74328868  0.00940104  0.94634349     0.97800
O321        O  0.76499636  0.02648024  0.92654893    -0.82700
O322        O  0.79592090  0.08967533  0.95225179    -0.85300
C323        C  0.80137756  0.11776001  0.96034063     1.02300
O324        O  0.78361837  0.12858932  0.95008685    -0.78200
O325        O  0.72223708  0.08748535  0.97180992    -0.78300
C326        C  0.69637459  0.06060502  0.97722015     1.02300
Cr327      Cr  0.70294356  0.03086419  0.91980783     1.93700
Cr328      Cr  0.77743852  0.07251039  0.91144821     1.93200
Cr329      Cr  0.73837695  0.10530279  0.93113257     1.39100
O330        O  0.73960831  0.06963646  0.92068560    -1.23400
O331        O  0.64465780  0.03423932  0.28113877    -0.85600
O332        O  0.61621622  0.96944676  0.29483753    -0.82700
C333        C  0.59747058  0.96683212  0.31676743     0.97800
O334        O  0.57154719  0.96719079  0.31188306    -0.82700
O335        O  0.53151036  0.98626131  0.28794985    -0.85400
C336        C  0.54543132  0.01694589  0.29413543     1.02300
O337        O  0.57227716  0.03733083  0.28169094    -0.78100
O338        O  0.63206950  0.06259722  0.25099362    -0.78300
C339        C  0.65143616  0.06132636  0.27004657     1.02300
O340        O  0.63999376  0.02058766  0.21619138    -0.85600
O341        O  0.60604464  0.95584920  0.23013860    -0.82700
C342        C  0.58539489  0.92813623  0.24035289     0.97800
O343        O  0.56400265  0.92548222  0.25962901    -0.82700
O344        O  0.52729972  0.94990680  0.23248863    -0.85300
C345        C  0.51939167  0.96988683  0.22259832     1.02300
O346        O  0.53648330  0.00031989  0.22935584    -0.78200
O347        O  0.59537582  0.01927165  0.20077248    -0.78300
C348        C  0.62261421  0.02174405  0.19487269     1.02300
Cr349      Cr  0.62402059  0.99495761  0.25567020     1.93700
Cr350      Cr  0.55099752  0.95945495  0.27169096     1.93200
Cr351      Cr  0.58428461  0.02756771  0.24179114     1.39100
O352        O  0.58636178  0.99392647  0.25643119    -1.23400
O353        O  0.97455285  0.70607821  0.94565719    -0.85600
O354        O  0.95243373  0.64176985  0.94827680    -0.82700
C355        C  0.93046934  0.63135680  0.96871134     0.97800
O356        O  0.90261481  0.62752279  0.96346956    -0.82700
O357        O  0.86024962  0.64713788  0.94538231    -0.85400
C358        C  0.87095756  0.67557416  0.95743175     1.02300
O359        O  0.89849480  0.69947914  0.94937921    -0.78100
O360        O  0.96018991  0.73698279  0.92200538    -0.78300
C361        C  0.97783160  0.73376672  0.94159501     1.02300
O362        O  0.97508009  0.70488419  0.87895094    -0.85600
O363        O  0.94832940  0.63845483  0.88271345    -0.82700
C364        C  0.92792791  0.60851759  0.88739230     0.97800
O365        O  0.90322953  0.60040867  0.90463221    -0.82700
O366        O  0.86353072  0.62527540  0.88385910    -0.85300
C367        C  0.85319126  0.64487654  0.87985518     1.02300
O368        O  0.86836266  0.67344072  0.89181474    -0.78200
O369        O  0.92954371  0.70321697  0.86587746    -0.78300
C370        C  0.95741310  0.70778653  0.85900535     1.02300
Cr371      Cr  0.95960525  0.67249436  0.91383719     1.93700
Cr372      Cr  0.88498704  0.62781765  0.92338824     1.93200
Cr373      Cr  0.91467661  0.70085216  0.90777282     1.39100
O374        O  0.91970436  0.66676736  0.91477482    -1.23400
O375        O  0.62100760  0.67867813  0.04867311    -0.85600
O376        O  0.68642709  0.70713617  0.05806821    -0.82700
C377        C  0.71551597  0.72702916  0.06577249     0.97800
O378        O  0.72158827  0.75019561  0.08455131    -0.82700
O379        O  0.69866445  0.79015273  0.06077296    -0.85400
C380        C  0.67947648  0.80028069  0.05401471     1.02300
O381        O  0.64995610  0.78492994  0.06351680    -0.78100
O382        O  0.62428026  0.72493374  0.03503473    -0.78300
C383        C  0.61969839  0.69692700  0.02830911     1.02300
O384        O  0.61291846  0.67551411  0.11463507    -0.85600
O385        O  0.67766956  0.69969844  0.12324908    -0.82700
C386        C  0.68364473  0.71973036  0.14505624     0.97800
O387        O  0.68680124  0.74742262  0.14027987    -0.82700
O388        O  0.66942345  0.79017790  0.11953607    -0.85300
C389        C  0.63986239  0.77820009  0.12885947     1.02300
O390        O  0.61726978  0.75120109  0.11817031    -0.78200
O391        O  0.58479175  0.69083337  0.08741931    -0.78300
C392        C  0.58581160  0.67114736  0.10621054     1.02300
Cr393      Cr  0.64981982  0.69314858  0.08624811     1.93700
Cr394      Cr  0.69172494  0.76710226  0.10014375     1.93200
Cr395      Cr  0.62134610  0.73754032  0.07685766     1.39100
O396        O  0.65448795  0.73264390  0.08765328    -1.23400
C397        C  0.85030668  0.75485366  0.01341665    -0.18100
C398        C  0.82871008  0.76251621  0.02825769    -0.20300
C399        C  0.79636802  0.73767414  0.03502344     0.20400
C400        C  0.78610769  0.70460429  0.02727625    -0.03200
C401        C  0.80794530  0.69684993  0.01231731    -0.06300
C402        C  0.84004202  0.72217848  0.00502066     0.20600
C403        C  0.79732469  0.66390690  0.00388181     0.18800
C404        C  0.76531408  0.63889184  0.01140937    -0.17800
C405        C  0.74374272  0.64653593  0.02620466    -0.20000
C406        C  0.75375441  0.67934745  0.03374100     0.20300
C407        C  0.73166586  0.68735493  0.04692653    -0.33000
C408        C  0.74116153  0.72032039  0.05397037     0.01000
C409        C  0.77390437  0.74534045  0.04864707    -0.24300
C410        C  0.86094805  0.71460434  0.98857638    -0.28900
C411        C  0.85015180  0.68204030  0.97876328     0.06700
C412        C  0.81845120  0.65670987  0.98720659    -0.27600
H413        H  0.87494052  0.77463441  0.00803302     0.11400
H414        H  0.83717539  0.78799542  0.03400849     0.12500
H415        H  0.75673040  0.61345899  0.00533345     0.11600
H416        H  0.71897511  0.62680839  0.03124927     0.10800
H417        H  0.70667631  0.66771355  0.05143301     0.16200
H418        H  0.78151078  0.77070490  0.05405744     0.12100
H419        H  0.88528692  0.73443726  0.98238828     0.15000
H420        H  0.80978837  0.63157630  0.97993490     0.14800
C421        C  0.67188043  0.87375426  0.19717662    -0.18100
C422        C  0.66369071  0.89402313  0.21361477    -0.20300
C423        C  0.63078504  0.88582757  0.21617808     0.20400
C424        C  0.60568624  0.85646645  0.20295737    -0.03200
C425        C  0.61397902  0.83585674  0.18646872    -0.06300
C426        C  0.64729171  0.84486860  0.18314042     0.20600
C427        C  0.58908530  0.80686624  0.17250687     0.18800
C428        C  0.55609058  0.79840103  0.17567705    -0.17800
C429        C  0.54789375  0.81899432  0.19179567    -0.20000
C430        C  0.57250727  0.84836917  0.20523195     0.20300
C431        C  0.56485051  0.87052261  0.21964410    -0.33000
C432        C  0.59018801  0.90059352  0.23141326     0.01000
C433        C  0.62280622  0.90734799  0.23051292    -0.24300
C434        C  0.65556526  0.82543026  0.16512490    -0.28900
C435        C  0.63100184  0.79692061  0.15042037     0.06700
C436        C  0.59771195  0.78743423  0.15485479    -0.27600
H437        H  0.69752563  0.88099320  0.19498545     0.11400
H438        H  0.68320496  0.91655734  0.22372830     0.12500
H439        H  0.53662896  0.77615189  0.16513041     0.11600
H440        H  0.52233651  0.81223186  0.19326615     0.10800
H441        H  0.53975176  0.86536173  0.22004811     0.16200
H442        H  0.64239972  0.93047543  0.23974124     0.12100
H443        H  0.68119246  0.83290229  0.16203098     0.15000
H444        H  0.57848007  0.76553282  0.14363981     0.14800
C445        C  0.74484569  0.88064020  0.97250687    -0.18100
C446        C  0.75497690  0.91068748  0.95778421    -0.20300
C447        C  0.74578319  0.93278758  0.96910028     0.20400
C448        C  0.72656469  0.92449318  0.99588434    -0.03200
C449        C  0.71562571  0.89386374  0.01023876    -0.06300
C450        C  0.72482247  0.87176438  0.99857098     0.20600
C451        C  0.69494417  0.88515092  0.03598896     0.18800
C452        C  0.68639565  0.90741876  0.04788353    -0.17800
C453        C  0.69773898  0.93789506  0.03410478    -0.20000
C454        C  0.71737782  0.94638159  0.00791706     0.20300
C455        C  0.72651043  0.97572576  0.99281737    -0.33000
C456        C  0.74335630  0.98322854  0.96485220     0.01000
C457        C  0.75404416  0.96221519  0.95354348    -0.24300
C458        C  0.71349009  0.84116784  0.01303653    -0.28900
C459        C  0.69206779  0.83212131  0.03819430     0.06700
C460        C  0.68294343  0.85426080  0.04938178    -0.27600
H461        H  0.75220136  0.86405972  0.96316569     0.11400
H462        H  0.76973957  0.91647764  0.93734637     0.12500
H463        H  0.67072719  0.90116535  0.06775040     0.11600
H464        H  0.69046032  0.95452063  0.04351331     0.10800
H465        H  0.71849443  0.99191134  0.00194512     0.16200
H466        H  0.76687236  0.96765094  0.93196872     0.12100
H467        H  0.72063750  0.82415406  0.00438860     0.15000
H468        H  0.66690716  0.84762046  0.06905218     0.14800
C469        C  0.71117086  0.07208255  0.11742448    -0.18100
C470        C  0.72109633  0.07780651  0.08695807    -0.20300
C471        C  0.69794337  0.06298338  0.06349611     0.20400
C472        C  0.66445940  0.04224092  0.07074738    -0.03200
C473        C  0.65436092  0.03690042  0.10153536    -0.06300
C474        C  0.67786241  0.05169336  0.12500636     0.20600
C475        C  0.62074814  0.01688003  0.10879397     0.18800
C476        C  0.59764154  0.00195642  0.08533680    -0.17800
C477        C  0.60771465  0.00676276  0.05488524    -0.20000
C478        C  0.64105030  0.02692779  0.04726215     0.20300
C479        C  0.65134795  0.03225832  0.01663931    -0.33000
C480        C  0.68464655  0.05349596  0.00924309     0.01000
C481        C  0.70771089  0.06866097  0.03292404    -0.24300
C482        C  0.66760061  0.04602278  0.15556925    -0.28900
C483        C  0.63403684  0.02657038  0.16289555     0.06700
C484        C  0.61080177  0.01220969  0.13935078    -0.27600
H485        H  0.72954608  0.08375952  0.13506188     0.11400
H486        H  0.74694716  0.09380874  0.08173685     0.12500
H487        H  0.57172070  0.98645729  0.09055061     0.11600
H488        H  0.58936189  0.99486642  0.03726460     0.10800
H489        H  0.63344496  0.02052086  0.99862382     0.16200
H490        H  0.73352773  0.08475030  0.02753188     0.12100
H491        H  0.68556210  0.05739286  0.17360235     0.15000
H492        H  0.58489510  0.99705046  0.14487912     0.14800
C493        C  0.76658633  0.57844861  0.80264219    -0.18100
C494        C  0.73573835  0.56854621  0.78981297    -0.20300
C495        C  0.71569320  0.57988553  0.80190120     0.20400
C496        C  0.72694945  0.60124561  0.82739046    -0.03200
C497        C  0.75828735  0.61173406  0.83993994    -0.06300
C498        C  0.77826093  0.60023601  0.82761904     0.20600
C499        C  0.76971705  0.63403080  0.86467841     0.18800
C500        C  0.74961558  0.64495390  0.87722207    -0.17800
C501        C  0.71855226  0.63427734  0.86510297    -0.20000
C502        C  0.70719887  0.61275933  0.84003531     0.20300
C503        C  0.67693073  0.60366121  0.82678696    -0.33000
C504        C  0.66612489  0.58397493  0.80031794     0.01000
C505        C  0.68523384  0.57131833  0.78843292    -0.24300
C506        C  0.80945005  0.61084579  0.84050611    -0.28900
C507        C  0.82110283  0.63362765  0.86485637     0.06700
C508        C  0.80103129  0.64508568  0.87658147    -0.27600
H509        H  0.78148411  0.56932923  0.79278930     0.11400
H510        H  0.72765628  0.55216611  0.77027769     0.12500
H511        H  0.75799206  0.66190541  0.89635476     0.11600
H512        H  0.70361725  0.64332863  0.87502430     0.10800
H513        H  0.66238587  0.61336685  0.83636378     0.16200
H514        H  0.67729892  0.55632557  0.76797214     0.12100
H515        H  0.82474282  0.60180429  0.83143199     0.15000
H516        H  0.80951829  0.66211788  0.89568825     0.14800
C517        C  0.56792754  0.60864794  0.95066227    -0.18100
C518        C  0.56201249  0.59881440  0.92018006    -0.20300
C519        C  0.57565903  0.62229385  0.89693863     0.20400
C520        C  0.59509975  0.65603390  0.90437636    -0.03200
C521        C  0.60060738  0.66599153  0.93513425    -0.06300
C522        C  0.58730390  0.64214185  0.95839466     0.20600
C523        C  0.61968068  0.69977166  0.94258201     0.18800
C524        C  0.63315797  0.72325540  0.91934343    -0.17800
C525        C  0.62818447  0.71333430  0.88885741    -0.20000
C526        C  0.60932285  0.67979564  0.88110401     0.20300
C527        C  0.60462096  0.66956915  0.85054622    -0.33000
C528        C  0.58515360  0.63598747  0.84305823     0.01000
C529        C  0.57050428  0.61257291  0.86638431    -0.24300
C530        C  0.59378164  0.65220943  0.98892373    -0.28900
C531        C  0.61268870  0.68584195  0.99640374     0.06700
C532        C  0.62523185  0.70946766  0.97313712    -0.27600
H533        H  0.55740400  0.59004749  0.96818811     0.11400
H534        H  0.54701890  0.57278666  0.91477028     0.12500
H535        H  0.64785748  0.74930784  0.92475670     0.11600
H536        H  0.63914412  0.73190029  0.87133842     0.10800
H537        H  0.61582140  0.68765559  0.83263745     0.16200
H538        H  0.55572181  0.58655867  0.86073958     0.12100
H539        H  0.58384233  0.63399402  0.00683267     0.15000
H540        H  0.63999824  0.73546883  0.97883531     0.14800
C541        C  0.70840817  0.64459550  0.62266130    -0.18100
C542        C  0.71819124  0.64892580  0.59212177    -0.20300
C543        C  0.69499779  0.63252718  0.56896503     0.20400
C544        C  0.66158335  0.61184518  0.57660136    -0.03200
C545        C  0.65181971  0.60707982  0.60739131    -0.06300
C546        C  0.67531835  0.62349516  0.63061116     0.20600
C547        C  0.61855105  0.58561565  0.61490280     0.18800
C548        C  0.59522544  0.56968256  0.59181752    -0.17800
C549        C  0.60481779  0.57473463  0.56134764    -0.20000
C550        C  0.63791878  0.59561233  0.55349139     0.20300
C551        C  0.64777586  0.60021440  0.52295070    -0.33000
C552        C  0.68108751  0.62007177  0.51522879     0.01000
C553        C  0.70459033  0.63619196  0.53833072    -0.24300
C554        C  0.66530934  0.61814733  0.66127385    -0.28900
C555        C  0.63225972  0.59596544  0.66878254     0.06700
C556        C  0.60910575  0.58014246  0.64538273    -0.27600
H557        H  0.72679331  0.65745244  0.64007920     0.11400
H558        H  0.74394733  0.66504275  0.58661246     0.12500
H559        H  0.56953899  0.55318458  0.59734261     0.11600
H560        H  0.58637888  0.56207022  0.54392664     0.10800
H561        H  0.62967444  0.58763014  0.50522131     0.16200
H562        H  0.73033461  0.65178181  0.53239974     0.12100
H563        H  0.68319750  0.63060706  0.67917280     0.15000
H564        H  0.58340762  0.56352934  0.65088497     0.14800
C565        C  0.71109188  0.65042748  0.25035836    -0.18100
C566        C  0.70778963  0.65725020  0.22014642    -0.20300
C567        C  0.69772953  0.67975697  0.21336184     0.20400
C568        C  0.69034143  0.69507070  0.23734291    -0.03200
C569        C  0.69299102  0.68765911  0.26781109    -0.06300
C570        C  0.70396342  0.66566256  0.27430131     0.20600
C571        C  0.68532530  0.70279055  0.29176048     0.18800
C572        C  0.67510024  0.72515522  0.28499605    -0.17800
C573        C  0.67300243  0.73290958  0.25483146    -0.20000
C574        C  0.68072122  0.71812912  0.23091890     0.20300
C575        C  0.67912055  0.72614909  0.20070211    -0.33000
C576        C  0.68632073  0.71097433  0.17663218     0.01000
C577        C  0.69521992  0.68746986  0.18309077    -0.24300
C578        C  0.70843352  0.65998334  0.30460480    -0.28900
C579        C  0.70139045  0.67542123  0.32850787     0.06700
C580        C  0.68898925  0.69606573  0.32201693    -0.27600
H581        H  0.71944132  0.63338667  0.25500395     0.11400
H582        H  0.71354518  0.64525630  0.20207963     0.12500
H583        H  0.66920801  0.73704612  0.30305781     0.11600
H584        H  0.66545040  0.75058352  0.25020061     0.10800
H585        H  0.67175939  0.74395533  0.19588249     0.16200
H586        H  0.70075731  0.67570185  0.16463516     0.12100
H587        H  0.71789148  0.64391740  0.30966732     0.15000
H588        H  0.68387773  0.70820272  0.34044951     0.14800
C589        C  0.82771330  0.63713166  0.28825098    -0.18100
C590        C  0.84546254  0.62734819  0.26992631    -0.20300
C591        C  0.85159358  0.60276918  0.27970583     0.20400
C592        C  0.83880231  0.58698068  0.30766325    -0.03200
C593        C  0.82036343  0.59647138  0.32594744    -0.06300
C594        C  0.81542682  0.62216875  0.31645164     0.20600
C595        C  0.80768037  0.58092131  0.35406619     0.18800
C596        C  0.81344330  0.55597913  0.36356954    -0.17800
C597        C  0.83237008  0.54709051  0.34572949    -0.20000
C598        C  0.84549508  0.56265945  0.31785678     0.20300
C599        C  0.86658069  0.55570759  0.30077575    -0.33000
C600        C  0.88089852  0.57292245  0.27376770     0.01000
C601        C  0.87187581  0.59511583  0.26274622    -0.24300
C602        C  0.79875464  0.63280127  0.33551208    -0.28900
C603        C  0.78604344  0.61736595  0.36346480     0.06700
C604        C  0.79005832  0.59108728  0.37240891    -0.27600
H605        H  0.82394300  0.65668685  0.28052830     0.11400
H606        H  0.85520152  0.63967561  0.24845614     0.12500
H607        H  0.80387734  0.54380609  0.38512577     0.11600
H608        H  0.83716200  0.52838599  0.35396464     0.10800
H609        H  0.87358283  0.53876366  0.30949757     0.16200
H610        H  0.88256946  0.60827484  0.24177733     0.12100
H611        H  0.79538974  0.65286756  0.32855077     0.15000
H612        H  0.78037845  0.57931944  0.39412355     0.14800
C613        C  0.88843922  0.57165656  0.06441898    -0.18100
C614        C  0.89215984  0.56826983  0.09535621    -0.20300
C615        C  0.92230512  0.58896190  0.10975275     0.20400
C616        C  0.94907662  0.61327444  0.09285419    -0.03200
C617        C  0.94543194  0.61644361  0.06148268    -0.06300
C618        C  0.91486326  0.59565194  0.04735387     0.20600
C619        C  0.97212978  0.64066948  0.04438638     0.18800
C620        C  0.00222041  0.66152132  0.05893304    -0.17800
C621        C  0.00579029  0.65846647  0.09011919    -0.20000
C622        C  0.97936282  0.63445440  0.10731114     0.20300
C623        C  0.98264924  0.63104088  0.13860964    -0.33000
C624        C  0.95615877  0.60633789  0.15538372     0.01000
C625        C  0.92609069  0.58557299  0.14074580    -0.24300
C626        C  0.91090242  0.59972424  0.01657453    -0.28900
C627        C  0.93706208  0.62414205  0.99949763     0.06700
C628        C  0.96788150  0.64413934  0.01330621    -0.27600
H629        H  0.86482503  0.55557848  0.05385271     0.11400
H630        H  0.87138781  0.54952721  0.10806888     0.12500
H631        H  0.02292644  0.68038159  0.04624125     0.11600
H632        H  0.02922943  0.67492419  0.10080375     0.10800
H633        H  0.00597242  0.64701278  0.14972725     0.16200
H634        H  0.90550114  0.56664314  0.15353360     0.12100
H635        H  0.88710873  0.58436533  0.00598815     0.15000
H636        H  0.98793805  0.66342610  0.00029923     0.14800
C637        C  0.76674714  0.82648600  0.47792643    -0.18100
C638        C  0.76063216  0.84849904  0.49420186    -0.20300
C639        C  0.72826108  0.84033677  0.50094615     0.20400
C640        C  0.70179198  0.80990770  0.49078610    -0.03200
C641        C  0.70794012  0.78782110  0.47427036    -0.06300
C642        C  0.74060485  0.79591763  0.46802388     0.20600
C643        C  0.68133673  0.75719917  0.46477865     0.18800
C644        C  0.64898337  0.74899916  0.47128560    -0.17800
C645        C  0.64292775  0.77077261  0.48770173    -0.20000
C646        C  0.66913003  0.80113673  0.49773310     0.20300
C647        C  0.66315556  0.82251036  0.51512568    -0.33000
C648        C  0.68931865  0.85269277  0.52577234     0.01000
C649        C  0.72185821  0.86166393  0.51821899    -0.24300
C650        C  0.74639468  0.77274476  0.45310140    -0.28900
C651        C  0.71976335  0.74166124  0.44493789     0.06700
C652        C  0.68745660  0.73463430  0.44999903    -0.27600
H653        H  0.79195186  0.83319196  0.47345399     0.11400
H654        H  0.78127051  0.87175884  0.50186675     0.12500
H655        H  0.62835363  0.72546330  0.46413172     0.11600
H656        H  0.61774443  0.76369357  0.49285551     0.10800
H657        H  0.63804491  0.81533191  0.52081021     0.16200
H658        H  0.74224366  0.88476967  0.52652143     0.12100
H659        H  0.77131806  0.77810243  0.44941602     0.15000
H660        H  0.66686210  0.71073774  0.44346782     0.14800
C661        C  0.63445836  0.72004982  0.64382593    -0.18100
C662        C  0.64738984  0.75129467  0.63111732    -0.20300
C663        C  0.63747220  0.77291104  0.64193493     0.20400
C664        C  0.61362572  0.76262900  0.66525533    -0.03200
C665        C  0.60091800  0.73122266  0.67842405    -0.06300
C666        C  0.61170876  0.71011413  0.66778181     0.20600
C667        C  0.57827690  0.72138291  0.70281691     0.18800
C668        C  0.56740060  0.74257511  0.71271230    -0.17800
C669        C  0.57939465  0.77343374  0.69912705    -0.20000
C670        C  0.60287907  0.78389655  0.67571541     0.20300
C671        C  0.61583181  0.81519035  0.66255195    -0.33000
C672        C  0.64010918  0.82577654  0.63977478     0.01000
C673        C  0.65090063  0.80456177  0.62972538    -0.24300
C674        C  0.60096339  0.68012368  0.68227664    -0.28900
C675        C  0.58078324  0.67133075  0.70830876     0.06700
C676        C  0.56830773  0.69136090  0.71775169    -0.27600
H677        H  0.64289710  0.70397198  0.63544269     0.11400
H678        H  0.66537885  0.75866891  0.61301017     0.12500
H679        H  0.54995200  0.73548310  0.73125228     0.11600
H680        H  0.57074016  0.78938825  0.70732728     0.10800
H681        H  0.60711252  0.83135322  0.67000157     0.16200
H682        H  0.66887703  0.81225818  0.61154297     0.12100
H683        H  0.61022835  0.66451731  0.67444615     0.15000
H684        H  0.55272815  0.68472858  0.73771625     0.14800
C685        C  0.59475087  0.98789719  0.42648825    -0.18100
C686        C  0.59967860  0.98265352  0.45677971    -0.20300
C687        C  0.61183006  0.96190236  0.46383133     0.20400
C688        C  0.61930981  0.94651323  0.43996148    -0.03200
C689        C  0.61493804  0.95229700  0.40938111    -0.06300
C690        C  0.60227275  0.97281490  0.40266681     0.20600
C691        C  0.62299684  0.93733073  0.38555809     0.18800
C692        C  0.63495595  0.91643528  0.39257456    -0.17800
C693        C  0.63879149  0.91030269  0.42283455    -0.20000
C694        C  0.63105234  0.92522342  0.44660815     0.20300
C695        C  0.63489080  0.91917025  0.47690456    -0.33000
C696        C  0.62775535  0.93448461  0.50092732     0.01000
C697        C  0.61651483  0.95613074  0.49423427    -0.24300
C698        C  0.59704280  0.97759703  0.37227074    -0.28900
C699        C  0.60506616  0.96282805  0.34841640     0.06700
C700        C  0.61852088  0.94314400  0.35518964    -0.27600
H701        H  0.58505218  0.00378519  0.42168407     0.11400
H702        H  0.59374237  0.99464543  0.47470762     0.12500
H703        H  0.64112765  0.90463215  0.37464775     0.11600
H704        H  0.64788428  0.89390267  0.42765224     0.10800
H705        H  0.64402214  0.90279249  0.48178095     0.16200
H706        H  0.61098836  0.96801147  0.51258958     0.12100
H707        H  0.58675563  0.99291719  0.36709300     0.15000
H708        H  0.62439284  0.93147121  0.33688745     0.14800
C709        C  0.74369050  0.04841366  0.72357934    -0.18100
C710        C  0.74791565  0.05766881  0.75429143    -0.20300
C711        C  0.73826979  0.03385554  0.77715160     0.20400
C712        C  0.72421638  0.00037380  0.76902735    -0.03200
C713        C  0.72052551  0.99109976  0.73796836    -0.06300
C714        C  0.73012680  0.01521250  0.71510378     0.20600
C715        C  0.70722792  0.95772079  0.72983094     0.18800
C716        C  0.69723878  0.93386421  0.75270095    -0.17800
C717        C  0.70039434  0.94297851  0.78342427    -0.20000
C718        C  0.71390106  0.97617003  0.79190669     0.20300
C719        C  0.71742160  0.98560896  0.82278024    -0.33000
C720        C  0.73207387  0.01905628  0.83099011     0.01000
C721        C  0.74247187  0.04296539  0.80797164    -0.24300
C722        C  0.72602543  0.00571400  0.68424154    -0.28900
C723        C  0.71328543  0.97250594  0.67594644     0.06700
C724        C  0.70404437  0.94873803  0.69899246    -0.27600
H725        H  0.75123069  0.06728593  0.70643491     0.11400
H726        H  0.75866410  0.08350455  0.76017524     0.12500
H727        H  0.68686822  0.90807764  0.74681718     0.11600
H728        H  0.69240792  0.92404752  0.80057017     0.10800
H729        H  0.70949650  0.96711281  0.84035846     0.16200
H730        H  0.75348391  0.06878987  0.81412166     0.12100
H731        H  0.73308119  0.02414763  0.66672110     0.15000
H732        H  0.69367244  0.92298069  0.69290709     0.14800
C733        C  0.86498503  0.72982785  0.54378426    -0.18100
C734        C  0.89480460  0.74006783  0.55881006    -0.20300
C735        C  0.92120506  0.74051954  0.54353490     0.20400
C736        C  0.91777570  0.73167168  0.51243655    -0.03200
C737        C  0.88765315  0.72113683  0.49734569    -0.06300
C738        C  0.86088949  0.71964998  0.51322384     0.20600
C739        C  0.88392892  0.71076658  0.46669095     0.18800
C740        C  0.91061123  0.71241070  0.45101270    -0.17800
C741        C  0.94032531  0.72274651  0.46592971    -0.20000
C742        C  0.94387460  0.73169332  0.49675006     0.20300
C743        C  0.97236619  0.73875255  0.51251394    -0.33000
C744        C  0.97533941  0.74573150  0.54380840     0.01000
C745        C  0.95020976  0.74778865  0.55907132    -0.24300
C746        C  0.83031933  0.70696755  0.49850113    -0.28900
C747        C  0.82631263  0.69524054  0.46842524     0.06700
C748        C  0.85328941  0.69783022  0.45252507    -0.27600
H749        H  0.84482466  0.72904955  0.55631632     0.11400
H750        H  0.89692699  0.74685315  0.58261657     0.12500
H751        H  0.90820914  0.70481696  0.42741224     0.11600
H752        H  0.96023572  0.72280736  0.45357555     0.10800
H753        H  0.99159241  0.73686286  0.50080964     0.16200
H754        H  0.95215968  0.75253702  0.58332777     0.12100
H755        H  0.80946693  0.70519527  0.51062431     0.15000
H756        H  0.85016995  0.68916245  0.42919122     0.14800
C757        C  0.95938911  0.62493293  0.41375190    -0.18100
C758        C  0.96612956  0.63261873  0.44470647    -0.20300
C759        C  0.99873340  0.65006311  0.45520021     0.20400
C760        C  0.02475131  0.65985945  0.43422661    -0.03200
C761        C  0.01798088  0.65218795  0.40310729    -0.06300
C762        C  0.98513177  0.63458808  0.39271875     0.20600
C763        C  0.04419358  0.66204436  0.38241581     0.18800
C764        C  0.07676445  0.67964805  0.39269924    -0.17800
C765        C  0.08345192  0.68737814  0.42341417    -0.20000
C766        C  0.05765907  0.67756609  0.44427321     0.20300
C767        C  0.06439023  0.68583441  0.47492240    -0.33000
C768        C  0.03881873  0.67700161  0.49593847     0.01000
C769        C  0.00592808  0.65856065  0.48609130    -0.24300
C770        C  0.97878715  0.62652340  0.36162586    -0.28900
C771        C  0.00501661  0.63549942  0.34123699     0.06700
C772        C  0.03751518  0.65366662  0.35180095    -0.27600
H773        H  0.93403163  0.61137367  0.40627453     0.11400
H774        H  0.94583119  0.62498800  0.46043098     0.12500
H775        H  0.09708746  0.68735889  0.37697795     0.11600
H776        H  0.10882374  0.70109272  0.43085635     0.10800
H777        H  0.08978171  0.69997873  0.48232378     0.16200
H778        H  0.98609900  0.65203110  0.50215024     0.12100
H779        H  0.95366997  0.61228377  0.35354511     0.15000
H780        H  0.05780926  0.66088438  0.33610287     0.14800
C781        C  0.93021554  0.69950304  0.75054453    -0.18100
C782        C  0.93947098  0.70291386  0.71997609    -0.20300
C783        C  0.97274473  0.71780008  0.71187114     0.20400
C784        C  0.99698520  0.72979721  0.73483295    -0.03200
C785        C  0.98760988  0.72583435  0.76569453    -0.06300
C786        C  0.95406381  0.71058556  0.77349436     0.20600
C787        C  0.01172414  0.73658446  0.78869743     0.18800
C788        C  0.04505751  0.75213858  0.78056500    -0.17800
C789        C  0.05440365  0.75662900  0.74995706    -0.20000
C790        C  0.03054546  0.74527674  0.72697851     0.20300
C791        C  0.03961573  0.74866881  0.69628864    -0.33000
C792        C  0.01556579  0.73596662  0.67333929     0.01000
C793        C  0.98218175  0.72057765  0.68125341    -0.24300
C794        C  0.94484227  0.70603140  0.80410351    -0.28900
C795        C  0.96855437  0.71566460  0.82716547     0.06700
C796        C  0.00200861  0.73109316  0.81934419    -0.27600
H797        H  0.90433750  0.68774405  0.75625094     0.11400
H798        H  0.92058395  0.69374633  0.70267201     0.12500
H799        H  0.06389601  0.76067348  0.79787395     0.11600
H800        H  0.08029300  0.76858244  0.74424663     0.10800
H801        H  0.06543031  0.76039201  0.69024945     0.16200
H802        H  0.96364312  0.71102614  0.66359297     0.12100
H803        H  0.91894765  0.69384827  0.80994090     0.15000
H804        H  0.02036428  0.73868741  0.83703630     0.14800
C805        C  0.40535207  0.50663573  0.67525962    -0.18100
C806        C  0.37652371  0.48453201  0.65950891    -0.20300
C807        C  0.37420137  0.45738079  0.64377920     0.20400
C808        C  0.40159611  0.45292698  0.64377214    -0.03200
C809        C  0.43051220  0.47498182  0.65989294    -0.06300
C810        C  0.43239188  0.50192913  0.67580067     0.20600
C811        C  0.45730534  0.46963944  0.66052766     0.18800
C812        C  0.45538238  0.44297000  0.64443137    -0.17800
C813        C  0.42701380  0.42144361  0.62823936    -0.20000
C814        C  0.39999349  0.42608472  0.62805072     0.20300
C815        C  0.37125992  0.40387464  0.61271451    -0.33000
C816        C  0.34330927  0.40730518  0.61288806     0.01000
C817        C  0.34501949  0.43438763  0.62841895    -0.24300
C818        C  0.46095251  0.52313563  0.69250211    -0.28900
C819        C  0.48727274  0.51718202  0.69407660     0.06700
C820        C  0.48529972  0.49056655  0.67774228    -0.27600
H821        H  0.40633307  0.52720631  0.68736526     0.11400
H822        H  0.35595818  0.48857425  0.65980499     0.12500
H823        H  0.47572750  0.43857958  0.64457728     0.11600
H824        H  0.42604513  0.40085881  0.61615817     0.10800
H825        H  0.37064204  0.38326597  0.60099697     0.16200
H826        H  0.32380207  0.43739233  0.62876506     0.12100
H827        H  0.46214832  0.54347881  0.70524511     0.15000
H828        H  0.50546651  0.48591526  0.67872165     0.14800
C829        C  0.50488993  0.09337238  0.31008107    -0.18100
C830        C  0.48510925  0.10266417  0.32588504    -0.20300
C831        C  0.46946469  0.08688094  0.35300690     0.20400
C832        C  0.47457049  0.06206387  0.36474228    -0.03200
C833        C  0.49393260  0.05215315  0.34841875    -0.06300
C834        C  0.50897105  0.06778824  0.32087324     0.20600
C835        C  0.49711661  0.02572699  0.35901361     0.18800
C836        C  0.48229208  0.01062033  0.38660918    -0.17800
C837        C  0.46345247  0.02070881  0.40297652    -0.20000
C838        C  0.45888025  0.04590014  0.39191462     0.20300
C839        C  0.43717736  0.05367190  0.40642708    -0.33000
C840        C  0.43034381  0.07674636  0.39375641     0.01000
C841        C  0.44719662  0.09394725  0.36754503    -0.24300
C842        C  0.52689680  0.05683547  0.30408356    -0.28900
C843        C  0.52890735  0.02961808  0.31378701     0.06700
C844        C  0.51421630  0.01429226  0.34137643    -0.27600
H845        H  0.51627660  0.10560062  0.28895045     0.11400
H846        H  0.48150669  0.12175224  0.31655551     0.12500
H847        H  0.48470296  0.99052964  0.39523077     0.11600
H848        H  0.45159616  0.00808360  0.42383320     0.10800
H849        H  0.42339432  0.03973378  0.42616305     0.16200
H850        H  0.44117865  0.11101834  0.35731631     0.12100
H851        H  0.53809901  0.06854834  0.28269749     0.15000
H852        H  0.51603339  0.99349157  0.34897703     0.14800
C853        C  0.13052209  0.89632258  0.48534420    -0.18100
C854        C  0.15252616  0.92458797  0.46905008    -0.20300
C855        C  0.18157888  0.92793552  0.45692748     0.20400
C856        C  0.18756639  0.90163713  0.45999156    -0.03200
C857        C  0.16537103  0.87311301  0.47650279    -0.06300
C858        C  0.13715617  0.87085851  0.48988351     0.20600
C859        C  0.17232938  0.84768147  0.48094346     0.18800
C860        C  0.20031658  0.85005220  0.46724250    -0.17800
C861        C  0.22227554  0.87825637  0.45092216    -0.20000
C862        C  0.21661887  0.90457272  0.44801945     0.20300
C863        C  0.24035872  0.93444199  0.43491673    -0.33000
C864        C  0.23563896  0.96159322  0.43357463     0.01000
C865        C  0.20554303  0.95770867  0.44335882    -0.24300
C866        C  0.11698648  0.84404822  0.50878780    -0.28900
C867        C  0.12502308  0.81975600  0.51510939     0.06700
C868        C  0.15213864  0.82119870  0.50019086    -0.27600
H869        H  0.10880881  0.89487013  0.49525286     0.11400
H870        H  0.14731636  0.94430863  0.46677771     0.12500
H871        H  0.20583799  0.83060079  0.47003691     0.11600
H872        H  0.24430468  0.87997803  0.44149561     0.10800
H873        H  0.26334672  0.93713826  0.42696618     0.16200
H874        H  0.20175774  0.97847334  0.44234706     0.12100
H875        H  0.09600041  0.84309269  0.51986980     0.15000
H876        H  0.15826876  0.80238242  0.50444728     0.14800
C877        C  0.22350169  0.14310107  0.46864679    -0.18100
C878        C  0.21455862  0.16297802  0.48505600    -0.20300
C879        C  0.23003029  0.17774462  0.51266078     0.20400
C880        C  0.25444571  0.17182068  0.52396823    -0.03200
C881        C  0.26386694  0.15221187  0.50716851    -0.06300
C882        C  0.24837407  0.13784271  0.47930594     0.20600
C883        C  0.28948672  0.14784302  0.51783138     0.18800
C884        C  0.30451835  0.16193681  0.54570702    -0.17800
C885        C  0.29486050  0.18086396  0.56252101    -0.20000
C886        C  0.27024725  0.18634934  0.55160236     0.20300
C887        C  0.26222569  0.20725742  0.56728311    -0.33000
C888        C  0.23925202  0.21493893  0.55552766     0.01000
C889        C  0.22253034  0.19930744  0.52852488    -0.24300
C890        C  0.25875951  0.11939113  0.46220295    -0.28900
C891        C  0.28523531  0.11621289  0.47211549     0.06700
C892        C  0.30026463  0.13027896  0.50006085    -0.27600
H893        H  0.21137161  0.13234598  0.44726704     0.11400
H894        H  0.19579208  0.16714060  0.47592772     0.12500
H895        H  0.32407261  0.15869435  0.55432277     0.11600
H896        H  0.30721628  0.19188153  0.58376083     0.10800
H897        H  0.27520964  0.21890515  0.58814270     0.16200
H898        H  0.20505658  0.20518796  0.51909996     0.12100
H899        H  0.24740193  0.10892728  0.44046648     0.15000
H900        H  0.32065012  0.12785391  0.50775160     0.14800
C901        C  0.88926767  0.20634662  0.83014123    -0.18100
C902        C  0.91054595  0.23527095  0.81462676    -0.20300
C903        C  0.90143045  0.25868780  0.80883647     0.20400
C904        C  0.87070610  0.25316090  0.81887065    -0.03200
C905        C  0.84903368  0.22371390  0.83443322    -0.06300
C906        C  0.85846364  0.20028797  0.84002182     0.20600
C907        C  0.81807239  0.21772278  0.84439663     0.18800
C908        C  0.80925546  0.24150300  0.83881275    -0.17800
C909        C  0.83083166  0.27080426  0.82344645    -0.20000
C910        C  0.86167109  0.27694262  0.81327889     0.20300
C911        C  0.88352889  0.30612126  0.79741997    -0.33000
C912        C  0.91391897  0.31121337  0.78676766     0.01000
C913        C  0.92257305  0.28740088  0.79293929    -0.24300
C914        C  0.83713801  0.17124418  0.85557086    -0.28900
C915        C  0.80623689  0.16486930  0.86579241     0.06700
C916        C  0.79674726  0.18823579  0.85994143    -0.27600
H917        H  0.89688932  0.18864356  0.83434640     0.11400
H918        H  0.93415674  0.23929879  0.80708113     0.12500
H919        H  0.78563832  0.23745068  0.84634548     0.11600
H920        H  0.82332758  0.28862321  0.81942820     0.10800
H921        H  0.87664880  0.32430912  0.79278936     0.16200
H922        H  0.94609610  0.29121832  0.78528600     0.12100
H923        H  0.84484915  0.15363100  0.85995663     0.15000
H924        H  0.77314866  0.18382073  0.86798687     0.14800
C925        C  0.15887139  0.35212888  0.71340547    -0.18100
C926        C  0.14260150  0.36522672  0.72968024    -0.20300
C927        C  0.13075379  0.38328772  0.71481753     0.20400
C928        C  0.13621702  0.38915408  0.68342598    -0.03200
C929        C  0.15280122  0.37602656  0.66699911    -0.06300
C930        C  0.16372069  0.35694357  0.68196891     0.20600
C931        C  0.15779207  0.38138592  0.63551692     0.18800
C932        C  0.14647814  0.39999031  0.62075470    -0.17800
C933        C  0.12967368  0.41260473  0.63694494    -0.20000
C934        C  0.12411732  0.40712233  0.66827370     0.20300
C935        C  0.10537648  0.41784520  0.68443024    -0.33000
C936        C  0.09835102  0.41038720  0.71541501     0.01000
C937        C  0.11213446  0.39412652  0.73055435    -0.24300
C938        C  0.17903911  0.34284345  0.66523643    -0.28900
C939        C  0.18419774  0.34821201  0.63382727     0.06700
C940        C  0.17367994  0.36775695  0.61927371    -0.27600
H941        H  0.16728010  0.33784308  0.72536654     0.11400
H942        H  0.13864504  0.36060295  0.75384051     0.12500
H943        H  0.15017501  0.40435573  0.59654399     0.11600
H944        H  0.12059849  0.42624456  0.62485833     0.10800
H945        H  0.09440554  0.42984475  0.67251101     0.16200
H946        H  0.10674669  0.38824301  0.75443091     0.12100
H947        H  0.18741685  0.32822554  0.67666918     0.15000
H948        H  0.17747148  0.37200090  0.59503397     0.14800
C949        C  0.09535602  0.59581641  0.63822577    -0.18100
C950        C  0.08887637  0.56612882  0.65140281    -0.20300
C951        C  0.05655893  0.54172707  0.65895471     0.20400
C952        C  0.03039946  0.54677303  0.65212748    -0.03200
C953        C  0.03700378  0.57697256  0.63942553    -0.06300
C954        C  0.06968660  0.60182494  0.63271681     0.20600
C955        C  0.01094994  0.58265238  0.63436357     0.18800
C956        C  0.97849722  0.55770625  0.64054684    -0.17800
C957        C  0.97192733  0.52768429  0.65272714    -0.20000
C958        C  0.99772582  0.52222396  0.65918848     0.20300
C959        C  0.99154327  0.49342823  0.67407145    -0.33000
C960        C  0.01767735  0.48938891  0.68304880     0.01000
C961        C  0.05005321  0.51314169  0.67455670    -0.24300
C962        C  0.07607825  0.63240915  0.62132297    -0.28900
C963        C  0.05022724  0.63862653  0.61756500     0.06700
C964        C  0.01776467  0.61339833  0.62379064    -0.27600
H965        H  0.12055753  0.61442685  0.63307856     0.11400
H966        H  0.10924044  0.56253796  0.65626488     0.12500
H967        H  0.95820928  0.56164287  0.63647224     0.11600
H968        H  0.94672376  0.50909437  0.65791665     0.10800
H969        H  0.96660962  0.47535540  0.68071789     0.16200
H970        H  0.07029779  0.51001521  0.68124718     0.12100
H971        H  0.10109007  0.65159247  0.61624073     0.15000
H972        H  0.99758885  0.61766117  0.62021600     0.14800
C973        C  0.01070425  0.58142076  0.85199115    -0.18100
C974        C  0.01936342  0.55959779  0.83927219    -0.20300
C975        C  0.99502898  0.52743473  0.83103345     0.20400
C976        C  0.96162386  0.51695662  0.83645308    -0.03200
C977        C  0.95287301  0.53892507  0.84972614    -0.06300
C978        C  0.97754389  0.57142894  0.85700162     0.20600
C979        C  0.91947899  0.52856878  0.85519827     0.18800
C980        C  0.89522226  0.49615432  0.84744697    -0.17800
C981        C  0.90383555  0.47460536  0.83379653    -0.20000
C982        C  0.93693524  0.48485598  0.82790820     0.20300
C983        C  0.94571051  0.46399769  0.81279095    -0.33000
C984        C  0.97895169  0.47458961  0.80642869     0.01000
C985        C  0.00348168  0.50605397  0.81651479    -0.24300
C986        C  0.96870623  0.59353902  0.86888704    -0.28900
C987        C  0.93549147  0.58374293  0.87434495     0.06700
C988        C  0.91098946  0.55089846  0.86791214    -0.27600
H989        H  0.02998956  0.60627799  0.85766633     0.11400
H990        H  0.04511092  0.56810762  0.83534368     0.12500
H991        H  0.86948638  0.48760272  0.85148220     0.11600
H992        H  0.88451740  0.44997115  0.82753374     0.10800
H993        H  0.92657099  0.43976195  0.80528539     0.16200
H994        H  0.02907375  0.51461163  0.81157261     0.12100
H995        H  0.98794828  0.61853754  0.87425505     0.15000
H996        H  0.88542269  0.54298271  0.87214620     0.14800
C997        C  0.43435311  0.27696259  0.34000808    -0.18100
C998        C  0.42609869  0.24907129  0.35759969    -0.20300
C999        C  0.39814741  0.21836889  0.35072861     0.20400
C1000       C  0.37854005  0.21578040  0.32565209    -0.03200
C1001       C  0.38714080  0.24382603  0.30765355    -0.06300
C1002       C  0.41501449  0.27472226  0.31498120     0.20600
C1003       C  0.36742239  0.24101199  0.28266231     0.18800
C1004       C  0.33952808  0.21039186  0.27566960    -0.17800
C1005       C  0.33083426  0.18281655  0.29362800    -0.20000
C1006       C  0.35001765  0.18526783  0.31877164     0.20300
C1007       C  0.34091737  0.15780487  0.33728603    -0.33000
C1008       C  0.36027165  0.16002579  0.36229440     0.01000
C1009       C  0.38915922  0.19034082  0.36865064    -0.24300
C1010       C  0.42242881  0.30285644  0.29768678    -0.28900
C1011       C  0.40221873  0.30031544  0.27317037     0.06700
C1012       C  0.37526412  0.26899389  0.26554248    -0.27600
H1013       H  0.45579698  0.30036563  0.34611248     0.11400
H1014       H  0.44142701  0.25161211  0.37681588     0.12500
H1015       H  0.32411665  0.20786799  0.25652585     0.11600
H1016       H  0.30895238  0.15958117  0.28794198     0.10800
H1017       H  0.31878440  0.13454012  0.33213563     0.16200
H1018       H  0.40407857  0.19233176  0.38804368     0.12100
H1019       H  0.44303526  0.32677617  0.30400436     0.15000
H1020       H  0.35945210  0.26647674  0.24673240     0.14800
C1021       C  0.33429260  0.30492909  0.39954409    -0.18100
C1022       C  0.32464658  0.29965782  0.43014070    -0.20300
C1023       C  0.31677723  0.32096507  0.44547361     0.20400
C1024       C  0.31860371  0.34779165  0.42969258    -0.03200
C1025       C  0.32829125  0.35309078  0.39893998    -0.06300
C1026       C  0.33619296  0.33157308  0.38372389     0.20600
C1027       C  0.33017079  0.38005879  0.38348213     0.18800
C1028       C  0.32223920  0.40134033  0.39859990    -0.17800
C1029       C  0.31257750  0.39604843  0.42896343    -0.20000
C1030       C  0.31080699  0.36945736  0.44462869     0.20300
C1031       C  0.30140339  0.36433876  0.47504707    -0.33000
C1032       C  0.29959267  0.33786090  0.49119842     0.01000
C1033       C  0.30718403  0.31607738  0.47624033    -0.24300
C1034       C  0.34601821  0.33728865  0.35307696    -0.28900
C1035       C  0.34819763  0.36440066  0.33775710     0.06700
C1036       C  0.34010909  0.38550333  0.35317396    -0.27600
H1037       H  0.34031259  0.28818248  0.38826321     0.11400
H1038       H  0.32339670  0.27893786  0.44182595     0.12500
H1039       H  0.32356854  0.42212242  0.38694970     0.11600
H1040       H  0.30658721  0.41282823  0.44023495     0.10800
H1041       H  0.29539681  0.38121104  0.48612475     0.16200
H1042       H  0.30566680  0.29549890  0.48845002     0.12100
H1043       H  0.35245186  0.32105499  0.34135910     0.15000
H1044       H  0.34157244  0.40638612  0.34156684     0.14800
C1045       C  0.51535292  0.49695453  0.38421946    -0.18100
C1046       C  0.54353964  0.51584327  0.40189388    -0.20300
C1047       C  0.57409604  0.52054143  0.39260662     0.20400
C1048       C  0.57606394  0.50513670  0.36574333    -0.03200
C1049       C  0.54756114  0.48608282  0.34785485    -0.06300
C1050       C  0.51714803  0.48241150  0.35687374     0.20600
C1051       C  0.54980290  0.47181084  0.32037900     0.18800
C1052       C  0.58021726  0.47590212  0.31141472    -0.17800
C1053       C  0.60845276  0.49498635  0.32895152    -0.20000
C1054       C  0.60680254  0.51017460  0.35591573     0.20300
C1055       C  0.63555665  0.53190170  0.37216857    -0.33000
C1056       C  0.63390315  0.54861535  0.39806412     0.01000
C1057       C  0.60299293  0.54200930  0.40864239    -0.24300
C1058       C  0.48937834  0.46522247  0.33796171    -0.28900
C1059       C  0.49162448  0.45176505  0.30998743     0.06700
C1060       C  0.52190583  0.45464090  0.30182255    -0.27600
H1061       H  0.49226343  0.49434330  0.39161899     0.11400
H1062       H  0.54158401  0.52749032  0.42247664     0.12500
H1063       H  0.58234804  0.46500013  0.29040454     0.11600
H1064       H  0.63175121  0.49849764  0.32103370     0.10800
H1065       H  0.65939795  0.53777482  0.36338690     0.16200
H1066       H  0.60178125  0.55565659  0.42806671     0.12100
H1067       H  0.46630443  0.46312587  0.34464227     0.15000
H1068       H  0.52411992  0.44428415  0.28049221     0.14800
C1069       C  0.52730648  0.55119776  0.10440873    -0.18100
C1070       C  0.50972490  0.52137646  0.12012257    -0.20300
C1071       C  0.49549316  0.52022108  0.14850598     0.20400
C1072       C  0.49855084  0.54945904  0.16080224    -0.03200
C1073       C  0.51634346  0.57959161  0.14497383    -0.06300
C1074       C  0.53103709  0.58045803  0.11678614     0.20600
C1075       C  0.52060388  0.60906219  0.15796907     0.18800
C1076       C  0.50610298  0.60789297  0.18616834    -0.17800
C1077       C  0.48814914  0.57801968  0.20163253    -0.20000
C1078       C  0.48461408  0.54881655  0.18930918     0.20300
C1079       C  0.46791728  0.51915921  0.20536124    -0.33000
C1080       C  0.46507949  0.48982313  0.19370139     0.01000
C1081       C  0.47879908  0.49056472  0.16503311    -0.24300
C1082       C  0.55073204  0.61082841  0.10232789    -0.28900
C1083       C  0.55644767  0.64039396  0.11589618     0.06700
C1084       C  0.54076906  0.63935177  0.14336439    -0.27600
H1085       H  0.53855557  0.55149128  0.08281341     0.11400
H1086       H  0.50765123  0.49927906  0.11024433     0.12500
H1087       H  0.50910181  0.63018786  0.19651600     0.11600
H1088       H  0.47751715  0.57786911  0.22354125     0.10800
H1089       H  0.45753006  0.51917922  0.22736575     0.16200
H1090       H  0.47676411  0.46825005  0.15573687     0.12100
H1091       H  0.56374126  0.61182071  0.08161391     0.15000
H1092       H  0.54608985  0.66223020  0.15432401     0.14800
C1093       C  0.98440287  0.44168566  0.38668715    -0.18100
C1094       C  0.99154122  0.46993931  0.37042207    -0.20300
C1095       C  0.96952116  0.46871980  0.34852677     0.20400
C1096       C  0.93947311  0.43893933  0.34372280    -0.03200
C1097       C  0.93207954  0.41044504  0.36040311    -0.06300
C1098       C  0.95502394  0.41174381  0.38147729     0.20600
C1099       C  0.90244253  0.38034584  0.35501542     0.18800
C1100       C  0.88010447  0.37938264  0.33361817    -0.17800
C1101       C  0.88751803  0.40755724  0.31697989    -0.20000
C1102       C  0.91734888  0.43729927  0.32151474     0.20300
C1103       C  0.92583941  0.46511819  0.30365763    -0.33000
C1104       C  0.95614145  0.49474009  0.30775371     0.01000
C1105       C  0.97750089  0.49645572  0.33074780    -0.24300
C1106       C  0.94900098  0.38273483  0.39577894    -0.28900
C1107       C  0.92033442  0.35241322  0.38946720     0.06700
C1108       C  0.89655523  0.35147189  0.36989510    -0.27600
H1109       H  0.00221417  0.44308443  0.40288777     0.11400
H1110       H  0.01466446  0.49258158  0.37448355     0.12500
H1111       H  0.85723906  0.35659956  0.32917997     0.11600
H1112       H  0.87015305  0.40590539  0.30012412     0.10800
H1113       H  0.90904215  0.46349883  0.28617878     0.16200
H1114       H  0.00089710  0.51902710  0.33410369     0.12100
H1115       H  0.96743259  0.38335256  0.41073864     0.15000
H1116       H  0.87470897  0.32800827  0.36466452     0.14800
C1117       C  0.04782587  0.21504826  0.48637579    -0.18100
C1118       C  0.07636257  0.22160693  0.50182488    -0.20300
C1119       C  0.10519987  0.25268689  0.49977156     0.20400
C1120       C  0.10563673  0.27706859  0.48121282    -0.03200
C1121       C  0.07675814  0.27054028  0.46580568    -0.06300
C1122       C  0.04754256  0.23949250  0.46869224     0.20600
C1123       C  0.07678460  0.29555928  0.44854924     0.18800
C1124       C  0.10585534  0.32627571  0.44571592    -0.17800
C1125       C  0.13450073  0.33261219  0.46072431    -0.20000
C1126       C  0.13452854  0.30841965  0.47899355     0.20300
C1127       C  0.16245110  0.31551434  0.49608080    -0.33000
C1128       C  0.16163743  0.29190883  0.51590689     0.01000
C1129       C  0.13314421  0.26023469  0.51691413    -0.24300
C1130       C  0.01832545  0.23401674  0.45495203    -0.28900
C1131       C  0.01803453  0.25955591  0.43913282     0.06700
C1132       C  0.04742500  0.28992490  0.43549409    -0.27600
H1133       H  0.02574465  0.19110008  0.48886127     0.11400
H1134       H  0.07566982  0.20255427  0.51591268     0.12500
H1135       H  0.10625686  0.34566951  0.43238955     0.11600
H1136       H  0.15641875  0.35675447  0.45866343     0.10800
H1137       H  0.18414512  0.33995849  0.49518399     0.16200
H1138       H  0.13228186  0.24170715  0.53190403     0.12100
H1139       H  0.99556614  0.21074669  0.45803558     0.15000
H1140       H  0.04710309  0.30961118  0.42326051     0.14800
C1141       C  0.89943222  0.30194076  0.60970399    -0.18100
C1142       C  0.89260194  0.29231994  0.57930275    -0.20300
C1143       C  0.91823650  0.30305876  0.55809899     0.20400
C1144       C  0.95113799  0.32345243  0.56757839    -0.03200
C1145       C  0.95807078  0.33267090  0.59836305    -0.06300
C1146       C  0.93201178  0.32210503  0.61938940     0.20600
C1147       C  0.99098150  0.35259600  0.60806145     0.18800
C1148       C  0.01661420  0.36331117  0.58679317    -0.17800
C1149       C  0.00969408  0.35452521  0.55612898    -0.20000
C1150       C  0.97705989  0.33465570  0.54631639     0.20300
C1151       C  0.96983886  0.32561172  0.51567996    -0.33000
C1152       C  0.93711302  0.30496983  0.50625644     0.01000
C1153       C  0.91149262  0.29370084  0.52758282    -0.24300
C1154       C  0.93892128  0.33212797  0.64971287    -0.28900
C1155       C  0.97152007  0.35195450  0.65950450     0.06700
C1156       C  0.99754359  0.36175342  0.63877094    -0.27600
H1157       H  0.87922212  0.29359890  0.62565918     0.11400
H1158       H  0.86724605  0.27665187  0.57233081     0.12500
H1159       H  0.04199150  0.37866212  0.59384148     0.11600
H1160       H  0.02986924  0.36321890  0.54009327     0.10800
H1161       H  0.98969801  0.33397088  0.49930352     0.16200
H1162       H  0.88623722  0.27778833  0.52036874     0.12100
H1163       H  0.91888765  0.32444645  0.66580522     0.15000
H1164       H  0.02271843  0.37734476  0.64635442     0.14800
C1165       C  0.72443397  0.17228228  0.31457622    -0.18100
C1166       C  0.75381614  0.19368231  0.32981533    -0.20300
C1167       C  0.77887072  0.18615407  0.33205005     0.20400
C1168       C  0.77483769  0.15750247  0.31764110    -0.03200
C1169       C  0.74531186  0.13601965  0.30220992    -0.06300
C1170       C  0.71959182  0.14299870  0.30122427     0.20600
C1171       C  0.74095340  0.10672057  0.28907003     0.18800
C1172       C  0.76636397  0.09970419  0.29022813    -0.17800
C1173       C  0.79553288  0.12093815  0.30548514    -0.20000
C1174       C  0.79969445  0.14947908  0.31979171     0.20300
C1175       C  0.82767288  0.16928442  0.33730261    -0.33000
C1176       C  0.83120764  0.19694082  0.35305055     0.01000
C1177       C  0.80721251  0.20589940  0.34950101    -0.24300
C1178       C  0.68903328  0.11972719  0.28838548    -0.28900
C1179       C  0.68421423  0.08965355  0.27709449     0.06700
C1180       C  0.71062796  0.08400233  0.27644883    -0.27600
H1181       H  0.70514620  0.17820472  0.31395575     0.11400
H1182       H  0.75656894  0.21568647  0.34058612     0.12500
H1183       H  0.76329783  0.07728895  0.28009691     0.11600
H1184       H  0.81447159  0.11456081  0.30681392     0.10800
H1185       H  0.84620216  0.16242318  0.33953995     0.16200
H1186       H  0.80981031  0.22729371  0.36143380     0.12100
H1187       H  0.66860108  0.12398703  0.28901062     0.15000
H1188       H  0.70692332  0.06084960  0.26746910     0.14800
C1189       C  0.84539975  0.07614003  0.53752311    -0.18100
C1190       C  0.86544844  0.10598562  0.52228892    -0.20300
C1191       C  0.85245421  0.11661797  0.49940664     0.20400
C1192       C  0.81913112  0.09636527  0.49118801    -0.03200
C1193       C  0.79917661  0.06589786  0.50598874    -0.06300
C1194       C  0.81205263  0.05598330  0.52984811     0.22400
C1195       C  0.76602750  0.04584981  0.49746333     0.18800
C1196       C  0.75308118  0.05589483  0.47412765    -0.17800
C1197       C  0.77257802  0.08624940  0.45996187    -0.20000
C1198       C  0.80547307  0.10683001  0.46858365     0.20300
C1199       C  0.82478427  0.13780175  0.45514275    -0.33000
C1200       C  0.85796017  0.15825111  0.46316115     0.01000
C1201       C  0.87191422  0.14723977  0.48486651    -0.24300
C1202       C  0.79099268  0.02694912  0.54632354    -0.28900
C1203       C  0.75740923  0.00783001  0.53878417     0.06700
C1204       C  0.74582037  0.01678948  0.51329333    -0.27600
H1205       H  0.85590976  0.06903168  0.55559093     0.11400
H1206       H  0.89099910  0.12110831  0.52886933     0.12500
H1207       H  0.72758732  0.04064277  0.46737060     0.11600
H1208       H  0.76182115  0.09378020  0.44246157     0.10800
H1209       H  0.81414016  0.14581119  0.43791664     0.16200
H1210       H  0.89759808  0.16281299  0.49089346     0.12100
H1211       H  0.80024070  0.02032840  0.56579903     0.15000
H1212       H  0.72017594  0.00200145  0.50675613     0.14800
C1213       C  0.39854993  0.38893600  0.80940077    -0.18100
C1214       C  0.41947760  0.42063895  0.79846487    -0.20300
C1215       C  0.45193363  0.43912099  0.80891930     0.20400
C1216       C  0.46364613  0.42550044  0.83034396    -0.03200
C1217       C  0.44234646  0.39362703  0.84171752    -0.06300
C1218       C  0.40968040  0.37544389  0.83119906     0.20600
C1219       C  0.45350788  0.38020628  0.86392584     0.18800
C1220       C  0.48625768  0.39855302  0.87384505    -0.17800
C1221       C  0.50765839  0.42995617  0.86202715    -0.20000
C1222       C  0.49654255  0.44373161  0.84040665     0.20300
C1223       C  0.51770844  0.47519796  0.82836121    -0.33000
C1224       C  0.50596035  0.48879171  0.80709972     0.01000
C1225       C  0.47298084  0.47080674  0.79788696    -0.24300
C1226       C  0.38822610  0.34454433  0.84343615    -0.28900
C1227       C  0.39839196  0.33180244  0.86694183     0.06700
C1228       C  0.43136900  0.34924964  0.87650085    -0.27600
H1229       H  0.37349884  0.37516198  0.80115251     0.11400
H1230       H  0.41027611  0.43071149  0.78182472     0.12500
H1231       H  0.49528277  0.38868432  0.89084969     0.11600
H1232       H  0.53283467  0.44358715  0.86998981     0.10800
H1233       H  0.54326455  0.48898595  0.83528222     0.16200
H1234       H  0.46404165  0.48090087  0.78097501     0.12100
H1235       H  0.36294348  0.33111573  0.83564739     0.15000
H1236       H  0.43933942  0.33957643  0.89463639     0.14800
C1237       C  0.22250796  0.21192462  0.72801621    -0.18100
C1238       C  0.22380921  0.20523282  0.75867584    -0.20300
C1239       C  0.24293581  0.23093823  0.77910842     0.20400
C1240       C  0.26063083  0.26377043  0.76861037    -0.03200
C1241       C  0.25991052  0.27044282  0.73754966    -0.06300
C1242       C  0.24067944  0.24436731  0.71723457     0.20600
C1243       C  0.27867586  0.30312393  0.72679376     0.18800
C1244       C  0.29727931  0.32888183  0.74736460    -0.17800
C1245       C  0.29754417  0.32232766  0.77825370    -0.20000
C1246       C  0.27956112  0.28987181  0.78902530     0.20300
C1247       C  0.28098705  0.28295976  0.81967091    -0.33000
C1248       C  0.26471133  0.25022021  0.82994286     0.01000
C1249       C  0.24541778  0.22433887  0.80965884    -0.24300
C1250       C  0.24001204  0.25116267  0.68646835    -0.28900
C1251       C  0.25888369  0.28355515  0.67551208     0.06700
C1252       C  0.27839809  0.30942775  0.69570640    -0.27600
H1253       H  0.20759312  0.19166231  0.71265137     0.11400
H1254       H  0.21000072  0.17993079  0.76637458     0.12500
H1255       H  0.31166342  0.35410539  0.73955931     0.11600
H1256       H  0.31215063  0.34261463  0.79368382     0.10800
H1257       H  0.29628241  0.30293138  0.83519178     0.16200
H1258       H  0.23288516  0.19907355  0.81755704     0.12100
H1259       H  0.22499562  0.23112046  0.67090290     0.15000
H1260       H  0.29263755  0.33446427  0.68734750     0.14800
C1261       C  0.33567133  0.34952445  0.08372080    -0.18100
C1262       C  0.33273581  0.34125798  0.05280705    -0.20300
C1263       C  0.34969199  0.32669366  0.04031415     0.20400
C1264       C  0.37037202  0.32102351  0.05903856    -0.03200
C1265       C  0.37385024  0.32995336  0.09006436    -0.06300
C1266       C  0.35612446  0.34392923  0.10257514     0.20600
C1267       C  0.39497344  0.32474333  0.10857013     0.18800
C1268       C  0.41218976  0.31048004  0.09608088    -0.17800
C1269       C  0.40824974  0.30104767  0.06551519    -0.20000
C1270       C  0.38733201  0.30609746  0.04686394     0.20300
C1271       C  0.38260616  0.29588599  0.01641479    -0.33000
C1272       C  0.36171070  0.30101864  0.99775689     0.01000
C1273       C  0.34584906  0.31705745  0.00963193    -0.24300
C1274       C  0.35941495  0.35228215  0.13362028    -0.28900
C1275       C  0.38087900  0.34760619  0.15200752     0.06700
C1276       C  0.39856726  0.33388874  0.13925386    -0.27600
H1277       H  0.32208658  0.36042434  0.09283825     0.11400
H1278       H  0.31703415  0.34614368  0.03864662     0.12500
H1279       H  0.42851839  0.30636106  0.11003336     0.11600
H1280       H  0.42150328  0.28971916  0.05647504     0.10800
H1281       H  0.39485152  0.28354054  0.00728136     0.16200
H1282       H  0.32929865  0.32061478  0.99534747     0.12100
H1283       H  0.34594306  0.36309302  0.14329124     0.15000
H1284       H  0.41499393  0.33002373  0.15335044     0.14800
C1285       C  0.87651088  0.22799719  0.00260963    -0.18100
C1286       C  0.90655442  0.25094610  0.01555906    -0.20300
C1287       C  0.92867036  0.24134319  0.02497226     0.20400
C1288       C  0.92052547  0.20832789  0.02161994    -0.03200
C1289       C  0.89014553  0.18510033  0.00828191    -0.06300
C1290       C  0.86816690  0.19510991  0.99871965     0.20600
C1291       C  0.88201689  0.15212522  0.00404551     0.18800
C1292       C  0.90422448  0.14263374  0.01375299    -0.17800
C1293       C  0.93425773  0.16563929  0.02730064    -0.20000
C1294       C  0.94283286  0.19868615  0.03125059     0.20300
C1295       C  0.97329558  0.22236604  0.04427511    -0.33000
C1296       C  0.98166295  0.25554593  0.04702808     0.01000
C1297       C  0.95891691  0.26446287  0.03744491    -0.24300
C1298       C  0.83856006  0.17238527  0.98468471    -0.28900
C1299       C  0.83055195  0.13969779  0.97932666     0.06700
C1300       C  0.85224574  0.12957242  0.98954130    -0.27600
H1301       H  0.85994468  0.23607096  0.99531264     0.11400
H1302       H  0.91258630  0.27630685  0.01805919     0.12500
H1303       H  0.89845755  0.11742284  0.01069683     0.11600
H1304       H  0.95091498  0.15762598  0.03443581     0.10800
H1305       H  0.99057157  0.21521205  0.05159395     0.16200
H1306       H  0.96467892  0.28976831  0.03982867     0.12100
H1307       H  0.82226585  0.18061607  0.97689939     0.15000
H1308       H  0.84643547  0.10447150  0.98548037     0.14800
C1309       C  0.10798343  0.42642182  0.89153063    -0.18100
C1310       C  0.11413177  0.42468759  0.92224667    -0.20300
C1311       C  0.08796198  0.40769856  0.94266779     0.20400
C1312       C  0.05525482  0.39254586  0.93217094    -0.03200
C1313       C  0.04906617  0.39369927  0.90110840    -0.06300
C1314       C  0.07558627  0.41084516  0.88074284     0.20600
C1315       C  0.01637536  0.37743260  0.89039895     0.18800
C1316       C  0.99020199  0.36092282  0.91090487    -0.17800
C1317       C  0.99633578  0.36023365  0.94181455    -0.20000
C1318       C  0.02873935  0.37571231  0.95260265     0.20300
C1319       C  0.03512041  0.37381177  0.98329092    -0.33000
C1320       C  0.06761481  0.38759705  0.99353377     0.01000
C1321       C  0.09391426  0.40487152  0.97325195    -0.24300
C1322       C  0.06921479  0.41202996  0.84994220    -0.28900
C1323       C  0.03676082  0.39553569  0.83919609     0.06700
C1324       C  0.01046200  0.37803376  0.85938069    -0.27600
H1325       H  0.12857101  0.43965023  0.87615233     0.11400
H1326       H  0.13935793  0.43649163  0.93000866     0.12500
H1327       H  0.96498784  0.34848242  0.90302243     0.11600
H1328       H  0.97574258  0.34717238  0.95721963     0.10800
H1329       H  0.01480947  0.36017465  0.99888793     0.16200
H1330       H  0.11900355  0.41563172  0.98120981     0.12100
H1331       H  0.08947475  0.42540212  0.83422949     0.15000
H1332       H  0.98540115  0.36560375  0.85101357     0.14800
C1333       C  0.10586053  0.50708992  0.16824656    -0.18100
C1334       C  0.09426326  0.52521956  0.18367799    -0.20300
C1335       C  0.06317372  0.52056113  0.17700020     0.20400
C1336       C  0.04413351  0.49850560  0.15368173    -0.03200
C1337       C  0.05587570  0.48027164  0.13804399    -0.06300
C1338       C  0.08661533  0.48404406  0.14580495     0.20600
C1339       C  0.03610164  0.45706222  0.11574077     0.18800
C1340       C  0.00552794  0.45324453  0.10830349    -0.17800
C1341       C  0.99396783  0.47138246  0.12372444    -0.20000
C1342       C  0.01275333  0.49358083  0.14688725     0.20300
C1343       C  0.00015110  0.50984755  0.16419838    -0.33000
C1344       C  0.01833970  0.53057978  0.18851965     0.01000
C1345       C  0.05026102  0.53654284  0.19409435    -0.24300
C1346       C  0.09663783  0.46344108  0.13221125    -0.28900
C1347       C  0.07601478  0.43907577  0.11131307     0.06700
C1348       C  0.04639500  0.43677150  0.10248693    -0.27600
H1349       H  0.12951065  0.51046024  0.17444804     0.11400
H1350       H  0.10925769  0.54225428  0.20144331     0.12500
H1351       H  0.99014023  0.43555479  0.09111090     0.11600
H1352       H  0.96993619  0.46738311  0.11808811     0.10800
H1353       H  0.97566743  0.50522812  0.15959815     0.16200
H1354       H  0.06476538  0.55286640  0.21248401     0.12100
H1355       H  0.11919890  0.46483092  0.13933212     0.15000
H1356       H  0.03040909  0.41771591  0.08647607     0.14800
C1357       C  0.93617528  0.26394132  0.24472617    -0.18100
C1358       C  0.94669559  0.27039557  0.21449303    -0.20300
C1359       C  0.98034153  0.28671402  0.20745841     0.20400
C1360       C  0.00362662  0.29701227  0.23118361    -0.03200
C1361       C  0.99306248  0.29098081  0.26163879    -0.06300
C1362       C  0.95916140  0.27400425  0.26837726     0.20600
C1363       C  0.01642832  0.30160295  0.28531298     0.18800
C1364       C  0.05005337  0.31799184  0.27832689    -0.17800
C1365       C  0.06050955  0.32352445  0.24811454    -0.20000
C1366       C  0.03749355  0.31302930  0.22449116     0.20300
C1367       C  0.04780608  0.31801075  0.19426246    -0.33000
C1368       C  0.02484656  0.30768600  0.17053435     0.01000
C1369       C  0.99116576  0.29254882  0.17716856    -0.24300
C1370       C  0.94888226  0.26709682  0.29864577    -0.28900
C1371       C  0.97206116  0.27752180  0.32222704     0.06700
C1372       C  0.00574757  0.29522819  0.31553056    -0.27600
H1373       H  0.91005068  0.25097235  0.24961250     0.11400
H1374       H  0.92851420  0.26231064  0.19660486     0.12500
H1375       H  0.06824655  0.32622018  0.29621739     0.11600
H1376       H  0.08661383  0.33592804  0.24320940     0.10800
H1377       H  0.07388209  0.33014775  0.18915330     0.16200
H1378       H  0.97347906  0.28457726  0.15882901     0.12100
H1379       H  0.92281433  0.25372927  0.30392778     0.15000
H1380       H  0.02355239  0.30313718  0.33376993     0.14800
C1381       C  0.21922720  0.34252008  0.22146784    -0.18100
C1382       C  0.19163246  0.33629723  0.20468970    -0.20300
C1383       C  0.19432121  0.35804652  0.18183195     0.20400
C1384       C  0.22499634  0.38697294  0.17653103    -0.03200
C1385       C  0.25309337  0.39298690  0.19317984    -0.06300
C1386       C  0.25010984  0.37038624  0.21543518     0.20600
C1387       C  0.28426217  0.42090780  0.18686923     0.18800
C1388       C  0.28656413  0.44332178  0.16478398    -0.17800
C1389       C  0.25860672  0.43767594  0.14864620    -0.20000
C1390       C  0.22779391  0.40929859  0.15398411     0.20300
C1391       C  0.19996555  0.40230448  0.13664243    -0.33000
C1392       C  0.16970496  0.37269017  0.14085339     0.01000
C1393       C  0.16707470  0.35089653  0.16371161    -0.24300
C1394       C  0.27819636  0.37511880  0.23043360    -0.28900
C1395       C  0.30981010  0.40157701  0.22308563     0.06700
C1396       C  0.31256612  0.42508280  0.20186805    -0.27600
H1397       H  0.21657580  0.32500130  0.23863170     0.11400
H1398       H  0.16826500  0.31416436  0.20927833     0.12500
H1399       H  0.31010378  0.46498062  0.15962466     0.11600
H1400       H  0.26125033  0.45517094  0.13146688     0.10800
H1401       H  0.20220415  0.41915715  0.11893876     0.16200
H1402       H  0.14380683  0.32824567  0.16724235     0.12100
H1403       H  0.27547531  0.35705531  0.24704435     0.15000
H1404       H  0.33665696  0.44557494  0.19601703     0.14800
C1405       C  0.12994036  0.25347574  0.96666740    -0.18100
C1406       C  0.14727386  0.23955297  0.95363708    -0.20300
C1407       C  0.17822553  0.24754926  0.96491942     0.20400
C1408       C  0.19165650  0.26984988  0.98964655    -0.03200
C1409       C  0.17476261  0.28477664  0.00203297    -0.06300
C1410       C  0.14354448  0.27627125  0.99075055     0.20600
C1411       C  0.18916118  0.30819756  0.02577895     0.18800
C1412       C  0.21970521  0.31578130  0.03754837    -0.17800
C1413       C  0.23592956  0.30034942  0.02585763    -0.20000
C1414       C  0.22229227  0.27771676  0.00176537     0.20300
C1415       C  0.23958272  0.26400098  0.98879323    -0.33000
C1416       C  0.22796253  0.24398452  0.96256509     0.01000
C1417       C  0.19663969  0.23485692  0.95125473    -0.24300
C1418       C  0.12645827  0.29041597  0.00410440    -0.28900
C1419       C  0.14093200  0.31391137  0.02764453     0.06700
C1420       C  0.17249565  0.32311618  0.03789339    -0.27600
H1421       H  0.10599408  0.24665627  0.95766932     0.11400
H1422       H  0.13648559  0.22256147  0.93472997     0.12500
H1423       H  0.23089551  0.33341504  0.05590174     0.11600
H1424       H  0.25951293  0.30648658  0.03544410     0.10800
H1425       H  0.26365051  0.27103873  0.99788580     0.16200
H1426       H  0.18762018  0.21977131  0.93093876     0.12100
H1427       H  0.10190831  0.28307604  0.99639008     0.15000
H1428       H  0.18330949  0.34059048  0.05648994     0.14800
C1429       C  0.25943263  0.90942409  0.64456357    -0.18100
C1430       C  0.22859415  0.88948613  0.63147557    -0.20300
C1431       C  0.20899115  0.85644385  0.64010765     0.20400
C1432       C  0.22040374  0.84334692  0.66236925    -0.03200
C1433       C  0.25147373  0.86378016  0.67608330    -0.06300
C1434       C  0.27099789  0.89678816  0.66682708     0.20600
C1435       C  0.26292100  0.85134405  0.69902740     0.18800
C1436       C  0.24298276  0.81817432  0.70763833    -0.17800
C1437       C  0.21245098  0.79764750  0.69350331    -0.20000
C1438       C  0.20089385  0.80993745  0.67075039     0.20300
C1439       C  0.17046452  0.78957823  0.65599021    -0.33000
C1440       C  0.15909164  0.80272438  0.63370972     0.01000
C1441       C  0.17839318  0.83629279  0.62642123    -0.24300
C1442       C  0.30152386  0.91706660  0.68037818    -0.28900
C1443       C  0.31291182  0.90580921  0.70428358     0.06700
C1444       C  0.29363212  0.87254267  0.71323844    -0.27600
H1445       H  0.27416989  0.93487108  0.63742118     0.11400
H1446       H  0.22017722  0.89986552  0.61439277     0.12500
H1447       H  0.25106024  0.80802895  0.72523494     0.11600
H1448       H  0.19782410  0.77213526  0.70044746     0.10800
H1449       H  0.15565844  0.76373214  0.66185906     0.16200
H1450       H  0.17007573  0.84658861  0.60913384     0.12100
H1451       H  0.31602950  0.94245841  0.67293798     0.15000
H1452       H  0.30182971  0.86358687  0.73178313     0.14800
C1453       C  0.33956862  0.05626325  0.61588675    -0.18100
C1454       C  0.33359012  0.05931132  0.58534668    -0.20300
C1455       C  0.34743576  0.04960879  0.56214621     0.20400
C1456       C  0.36694411  0.03606349  0.56968493    -0.03200
C1457       C  0.37331935  0.03337933  0.60052540    -0.06300
C1458       C  0.35972887  0.04371896  0.62377983     0.20600
C1459       C  0.39380629  0.02096726  0.60803892     0.18800
C1460       C  0.40685638  0.01033444  0.58486669    -0.17800
C1461       C  0.40030017  0.01272183  0.55433354    -0.20000
C1462       C  0.38070447  0.02592909  0.54642537     0.20300
C1463       C  0.37535084  0.03003137  0.51575157    -0.33000
C1464       C  0.35707267  0.04486338  0.50819124     0.01000
C1465       C  0.34276161  0.05400761  0.53155627    -0.24300
C1466       C  0.36703739  0.04190537  0.65441346    -0.28900
C1467       C  0.38848145  0.03073310  0.66191038     0.06700
C1468       C  0.40134521  0.01989895  0.63855801    -0.27600
H1469       H  0.32885228  0.06424035  0.63333178     0.11400
H1470       H  0.31841735  0.06963793  0.57985633     0.12500
H1471       H  0.42248094  0.00052535  0.59035074     0.11600
H1472       H  0.41101565  0.00474213  0.53688647     0.10800
H1473       H  0.38648831  0.02300194  0.49788449     0.16200
H1474       H  0.32828438  0.06508863  0.52589112     0.12100
H1475       H  0.35681674  0.04996896  0.67227293     0.15000
H1476       H  0.41729067  0.01047613  0.64417533     0.14800
C1477       C  0.39215016  0.17906672  0.79281922    -0.18100
C1478       C  0.40534741  0.16087822  0.78017368    -0.20300
C1479       C  0.39974537  0.13167058  0.79391260     0.20400
C1480       C  0.38092796  0.12105485  0.82093528    -0.03200
C1481       C  0.36686617  0.13887547  0.83320631    -0.06300
C1482       C  0.37258850  0.16811729  0.81916065     0.20600
C1483       C  0.34690940  0.12726489  0.85946413     0.18800
C1484       C  0.34214354  0.09874296  0.87383610    -0.17800
C1485       C  0.35642388  0.08142040  0.86197302    -0.20000
C1486       C  0.37539940  0.09211219  0.83534396     0.20300
C1487       C  0.38750875  0.07336262  0.82215317    -0.33000
C1488       C  0.40403646  0.08214188  0.79401025     0.01000
C1489       C  0.41122752  0.11207114  0.78050251    -0.24300
C1490       C  0.35891978  0.18595418  0.83194710    -0.28900
C1491       C  0.33861587  0.17414111  0.85786642     0.06700
C1492       C  0.33244041  0.14459540  0.87121113    -0.27600
H1493       H  0.39689432  0.20150075  0.78174520     0.11400
H1494       H  0.41973024  0.16953730  0.75949147     0.12500
H1495       H  0.32723986  0.08974104  0.89420628     0.11600
H1496       H  0.35202293  0.05921227  0.87328190     0.10800
H1497       H  0.38207684  0.05049981  0.83288106     0.16200
H1498       H  0.42372381  0.11893893  0.75874499     0.12100
H1499       H  0.36421530  0.20908571  0.82195827     0.15000
H1500       H  0.31769883  0.13600415  0.89174156     0.14800
C1501       C  0.60402194  0.02109466  0.80535572    -0.18100
C1502       C  0.57421381  0.01140992  0.79081253    -0.20300
C1503       C  0.55250972  0.02068347  0.80269607     0.20400
C1504       C  0.56128542  0.04054802  0.82914470    -0.03200
C1505       C  0.59130895  0.05004370  0.84406578    -0.06300
C1506       C  0.61254508  0.04000725  0.83217145     0.20600
C1507       C  0.59973762  0.06895455  0.87115232     0.18800
C1508       C  0.57828252  0.07884508  0.88253194    -0.17800
C1509       C  0.54880257  0.06993634  0.86744986    -0.20000
C1510       C  0.53992339  0.05059909  0.84085457     0.20300
C1511       C  0.51008805  0.04102734  0.82581645    -0.33000
C1512       C  0.50086468  0.02053673  0.79988732     0.01000
C1513       C  0.52219743  0.01039610  0.78859789    -0.24300
C1514       C  0.64143336  0.04806184  0.84777354    -0.28900
C1515       C  0.64945649  0.06552495  0.87559348     0.06700
C1516       C  0.62886908  0.07668462  0.88678324    -0.27600
H1517       H  0.62017468  0.01329172  0.79590148     0.11400
H1518       H  0.56802852  0.99645567  0.77036827     0.12500
H1519       H  0.58419748  0.09332616  0.90324700     0.11600
H1520       H  0.53273420  0.07787977  0.87681295     0.10800
H1521       H  0.49382835  0.04908549  0.83447417     0.16200
H1522       H  0.51551552  0.99510988  0.76832566     0.12100
H1523       H  0.65719628  0.03953951  0.83874023     0.15000
H1524       H  0.63464773  0.08991953  0.90823043     0.14800
C1525       C  0.58376584  0.98745419  0.68443794    -0.18100
C1526       C  0.56257970  0.99771682  0.69495453    -0.20300
C1527       C  0.52945598  0.98063181  0.68627181     0.20400
C1528       C  0.51737219  0.95276481  0.66702923    -0.03200
C1529       C  0.53895694  0.94273970  0.65593787    -0.06300
C1530       C  0.57221388  0.96024286  0.66475962     0.20600
C1531       C  0.52743191  0.91558102  0.63578884     0.18800
C1532       C  0.49401665  0.89809541  0.62777860    -0.17800
C1533       C  0.47235756  0.90753915  0.63944069    -0.20000
C1534       C  0.48381552  0.93497355  0.65893984     0.20300
C1535       C  0.46238063  0.94471218  0.67091644    -0.33000
C1536       C  0.47448344  0.97254975  0.69011209     0.01000
C1537       C  0.50815235  0.99066487  0.69707325    -0.24300
C1538       C  0.59375948  0.95101688  0.65304803    -0.28900
C1539       C  0.58321974  0.92538079  0.63143943     0.06700
C1540       C  0.54975254  0.90713676  0.62341829    -0.27600
H1541       H  0.60932208  0.00110592  0.69134582     0.11400
H1542       H  0.57207536  0.01895677  0.70996788     0.12500
H1543       H  0.48463406  0.87715081  0.61243246     0.11600
H1544       H  0.44667579  0.89352751  0.63300934     0.10800
H1545       H  0.43636905  0.93049935  0.66567075     0.16200
H1546       H  0.51762527  0.01179262  0.71224689     0.12100
H1547       H  0.61937154  0.96513073  0.65978606     0.15000
H1548       H  0.54137567  0.88732231  0.60687498     0.14800
C1549       C  0.44559287  0.90858315  0.13612922    -0.18100
C1550       C  0.41639048  0.89833575  0.11996927    -0.20300
C1551       C  0.39268233  0.90537348  0.13097078     0.20400
C1552       C  0.39853322  0.92265595  0.15883954    -0.03200
C1553       C  0.42832841  0.93372655  0.17472767    -0.06300
C1554       C  0.45198445  0.92658654  0.16337476     0.20600
C1555       C  0.43467340  0.95249887  0.20168472     0.18800
C1556       C  0.41084281  0.95903644  0.21311738    -0.17800
C1557       C  0.38118516  0.94759609  0.19772909    -0.20000
C1558       C  0.37505011  0.92980862  0.17043430     0.20300
C1559       C  0.34650286  0.92054626  0.15385489    -0.33000
C1560       C  0.34134421  0.90545556  0.12503059     0.01000
C1561       C  0.36403060  0.89688935  0.11406985    -0.24300
C1562       C  0.48167961  0.93794737  0.17930305    -0.28900
C1563       C  0.48836585  0.95742895  0.20566552     0.06700
C1564       C  0.46481914  0.96464499  0.21663620    -0.27600
H1565       H  0.46346390  0.90290274  0.12701789     0.11400
H1566       H  0.41249669  0.88515408  0.09868802     0.12500
H1567       H  0.41524478  0.97322404  0.23385763     0.11600
H1568       H  0.36333106  0.95332628  0.20682356     0.10800
H1569       H  0.32911184  0.92717130  0.16253464     0.16200
H1570       H  0.36051952  0.88569203  0.09176422     0.12100
H1571       H  0.49988411  0.93237001  0.17087816     0.15000
H1572       H  0.46982623  0.97930222  0.23718730     0.14800
C1573       C  0.30734642  0.04394395  0.21179403    -0.18100
C1574       C  0.31231372  0.05410453  0.24227062    -0.20300
C1575       C  0.30511835  0.03124439  0.26559699     0.20400
C1576       C  0.29286346  0.99783304  0.25816389    -0.03200
C1577       C  0.28732161  0.98749085  0.22746160    -0.06300
C1578       C  0.29476022  0.01068033  0.20410463     0.20600
C1579       C  0.27405742  0.95388181  0.22019055     0.18800
C1580       C  0.26711353  0.93105619  0.24343315    -0.17800
C1581       C  0.27311895  0.94138777  0.27377318    -0.20000
C1582       C  0.28582840  0.97466087  0.28141322     0.20300
C1583       C  0.29117146  0.98504588  0.31190470    -0.33000
C1584       C  0.30260860  0.01813805  0.31955045     0.01000
C1585       C  0.30963744  0.04111541  0.29622470    -0.24300
C1586       C  0.28910208  0.00007015  0.17358701    -0.28900
C1587       C  0.27508966  0.96645707  0.16644352     0.06700
C1588       C  0.26769698  0.94359505  0.18982611    -0.27600
H1589       H  0.31308993  0.06207147  0.19424719     0.11400
H1590       H  0.32177342  0.07987721  0.24760527     0.12500
H1591       H  0.25698769  0.90516672  0.23814065     0.11600
H1592       H  0.26751647  0.92327651  0.29130448     0.10800
H1593       H  0.28552441  0.96720532  0.32973391     0.16200
H1594       H  0.31869703  0.06675155  0.30193289     0.12100
H1595       H  0.29463195  0.01766312  0.15555084     0.15000
H1596       H  0.25716511  0.91767570  0.18426725     0.14800
C1597       C  0.22015282  0.04834500  0.02224841    -0.18100
C1598       C  0.22597417  0.07750044  0.00838080    -0.20300
C1599       C  0.25727563  0.10019725  0.99688109     0.20400
C1600       C  0.28293036  0.09340063  0.99942416    -0.03200
C1601       C  0.27697773  0.06390120  0.01305690    -0.06300
C1602       C  0.24545922  0.04123294  0.02466557     0.20600
C1603       C  0.30260703  0.05705671  0.01488650     0.18800
C1604       C  0.33392096  0.07964523  0.00355694    -0.17800
C1605       C  0.33985402  0.10889412  0.99027114    -0.20000
C1606       C  0.31452279  0.11589668  0.98801565     0.20300
C1607       C  0.32021142  0.14475023  0.97395083    -0.33000
C1608       C  0.29470848  0.15147589  0.97051665     0.01000
C1609       C  0.26330273  0.12923665  0.98238091    -0.24300
C1610       C  0.23992430  0.01191798  0.03832350    -0.28900
C1611       C  0.26544376  0.00496047  0.03978889     0.06700
C1612       C  0.29660734  0.02771157  0.02797661    -0.27600
H1613       H  0.19579594  0.03126816  0.03092729     0.11400
H1614       H  0.20595172  0.08225946  0.00658515     0.12500
H1615       H  0.35381648  0.07464405  0.00490184     0.11600
H1616       H  0.36420460  0.12592633  0.98152497     0.10800
H1617       H  0.34445452  0.16153576  0.96481242     0.16200
H1618       H  0.24341685  0.13408923  0.97969539     0.12100
H1619       H  0.21587200  0.99446269  0.04740036     0.15000
H1620       H  0.31659554  0.02282093  0.02934780     0.14800
C1621       C  0.27031439  0.90327331  0.91326571    -0.18100
C1622       C  0.27973982  0.90950185  0.88276575    -0.20300
C1623       C  0.31305688  0.92525744  0.87463422     0.20400
C1624       C  0.33713676  0.93470063  0.89752389    -0.03200
C1625       C  0.32766384  0.92899921  0.92837707    -0.06300
C1626       C  0.29407734  0.91306925  0.93617311     0.20600
C1627       C  0.35175775  0.93945391  0.95138926     0.18800
C1628       C  0.38507312  0.95479066  0.94318541    -0.17800
C1629       C  0.39443125  0.95986150  0.91255734    -0.20000
C1630       C  0.37066590  0.95007855  0.88961709     0.20300
C1631       C  0.37983582  0.95571748  0.85893286    -0.33000
C1632       C  0.35602938  0.94701639  0.83605507     0.01000
C1633       C  0.32270415  0.93190250  0.84406360    -0.24300
C1634       C  0.28478082  0.90743535  0.96675945    -0.28900
C1635       C  0.30853606  0.91824875  0.98989539     0.06700
C1636       C  0.34205595  0.93447199  0.98211397    -0.27600
H1637       H  0.24440634  0.89103921  0.91897030     0.11400
H1638       H  0.26095142  0.90198563  0.86552670     0.12500
H1639       H  0.40390065  0.96285376  0.96045696     0.11600
H1640       H  0.42030955  0.97174159  0.90681906     0.10800
H1641       H  0.40566588  0.96771325  0.85288091     0.16200
H1642       H  0.30432889  0.92505280  0.82650076     0.12100
H1643       H  0.25889460  0.89526795  0.97264892     0.15000
H1644       H  0.36041596  0.94276006  0.99987239     0.14800
C1645       C  0.04492571  0.76477747  0.03203380    -0.18100
C1646       C  0.07643375  0.78094489  0.04459424    -0.20300
C1647       C  0.10289132  0.80654763  0.02881069     0.20400
C1648       C  0.09735729  0.81683479  0.00056882    -0.03200
C1649       C  0.06552857  0.80021360  0.98768509    -0.06300
C1650       C  0.03942376  0.77375028  0.00335398     0.20600
C1651       C  0.06017497  0.80896986  0.95856611     0.18800
C1652       C  0.08646624  0.83559823  0.94345115    -0.17800
C1653       C  0.11786368  0.85270134  0.95661839    -0.20000
C1654       C  0.12373618  0.84315332  0.98492579     0.20300
C1655       C  0.15540816  0.85927897  0.99790924    -0.33000
C1656       C  0.16107791  0.84838381  0.02563626     0.01000
C1657       C  0.13475675  0.82199841  0.04083487    -0.24300
C1658       C  0.00886460  0.75508444  0.98919294    -0.28900
C1659       C  0.00417997  0.76147764  0.95908102     0.06700
C1660       C  0.02933499  0.78949680  0.94435940    -0.27600
H1661       H  0.02505965  0.74449536  0.04431893     0.11400
H1662       H  0.08020986  0.77305736  0.06646267     0.12500
H1663       H  0.08290681  0.84280726  0.92116443     0.11600
H1664       H  0.13774378  0.87293273  0.94432010     0.10800
H1665       H  0.17561680  0.88016122  0.98653099     0.16200
H1666       H  0.13893627  0.81435615  0.06269595     0.12100
H1667       H  0.98953239  0.73341557  0.00052938     0.15000
H1668       H  0.02599805  0.79425731  0.92100695     0.14800
C1669       C  0.09001622  0.76465256  0.20204010    -0.18100
C1670       C  0.11215282  0.79226417  0.18531381    -0.20300
C1671       C  0.13901703  0.79317510  0.17073203     0.20400
C1672       C  0.14388975  0.76615682  0.17334292    -0.03200
C1673       C  0.12127922  0.73805933  0.18997333    -0.06300
C1674       C  0.09425387  0.73740864  0.20425296     0.20600
C1675       C  0.12537606  0.71047346  0.19186969     0.18800
C1676       C  0.15261540  0.71171098  0.17763231    -0.17800
C1677       C  0.17526256  0.73974057  0.16139600    -0.20000
C1678       C  0.17097256  0.76697555  0.15890629     0.20300
C1679       C  0.19282559  0.79470521  0.14173149    -0.33000
C1680       C  0.18750005  0.82129548  0.13831167     0.01000
C1681       C  0.16069560  0.82039819  0.15314146    -0.24300
C1682       C  0.07149025  0.70931734  0.22007017    -0.28900
C1683       C  0.07470793  0.68126847  0.22157111     0.06700
C1684       C  0.10190244  0.68207115  0.20753654    -0.27600
H1685       H  0.06931185  0.76443391  0.21293787     0.11400
H1686       H  0.10811630  0.81281982  0.18359408     0.12500
H1687       H  0.15629336  0.69089996  0.17887007     0.11600
H1688       H  0.19593112  0.73994400  0.15044807     0.10800
H1689       H  0.21331610  0.79508173  0.13019560     0.16200
H1690       H  0.15648681  0.84079621  0.15072950     0.12100
H1691       H  0.05061680  0.70910221  0.23061322     0.15000
H1692       H  0.10461099  0.66064220  0.20855664     0.14800
loop_ 
_geom_bond_atom_site_label_1 
_geom_bond_atom_site_label_2 
_geom_bond_distance 
_geom_bond_site_symmetry_2 
_ccdc_geom_bond_type 
O1          Cr19   2.030       .  S
O1            C9   1.270       .  A
O2          Cr19   1.936       .  S
O2            C3   1.252       .  A
C3            O4   1.276       .  A
C3         C1560   1.486       .  S
O4          Cr20   2.061       .  S
O5          Cr20   1.971       .  S
O5            C6   1.260       .  A
C6            O7   1.271       .  A
C6         C1680   1.481       .  S
O7          Cr21   2.021       .  S
O8          Cr21   1.961       .  S
O8            C9   1.257       .  A
C9         C1587   1.474       .  S
O10         Cr19   1.947       .  S
O10          C18   1.253       .  A
O11         Cr19   2.026       .  S
O11          C12   1.269       .  A
C12          O13   1.256       .  A
C12        C1635   1.478   1_554  S
O13         Cr20   1.961       .  S
O14         Cr20   2.043       .  S
O14          C15   1.276       .  A
C15          O16   1.258       .  A
C15        C1656   1.475       .  S
O16         Cr21   1.970       .  S
O17         Cr21   2.034       .  S
O17          C18   1.269       .  A
C18        C1611   1.477   1_565  S
Cr19         O22   1.761       .  S
Cr20         O22   1.767       .  S
Cr21         O22   1.763       .  S
O23         Cr41   2.024       .  S
O23          C31   1.270       .  A
O24         Cr41   1.950   1_545  S
O24          C25   1.251       .  A
C25          O26   1.270       .  A
C25        C1488   1.486       .  S
O26         Cr42   2.050       .  S
O27         Cr42   1.984       .  S
O27          C28   1.266       .  A
C28          O29   1.277   1_545  A
C28        C1512   1.485       .  S
O29         Cr43   2.040       .  S
O30         Cr43   1.957       .  S
O30          C31   1.256       .  A
C31        C1632   1.477       .  S
O32         Cr41   1.936       .  S
O32          C40   1.250       .  A
O33         Cr41   2.031   1_545  S
O33          C34   1.272       .  A
C34          O35   1.257       .  A
C34        C1467   1.482       .  S
O35         Cr42   1.955       .  S
O36         Cr42   2.014       .  S
O36          C37   1.270   1_545  A
C37          O38   1.261       .  A
C37        C1536   1.477       .  S
O38         Cr43   1.978       .  S
O39         Cr43   2.066       .  S
O39          C40   1.275       .  A
C40        C1443   1.495       .  S
Cr41         O44   1.756       .  S
Cr42         O44   1.768   1_545  S
Cr43         O44   1.767       .  S
O45         Cr63   2.018       .  S
O45          C53   1.267       .  A
O46         Cr63   1.948       .  S
O46          C47   1.253       .  A
C47          O48   1.272       .  A
C47        C1347   1.471       .  S
O48         Cr64   2.044       .  S
O49         Cr64   1.976       .  S
O49          C50   1.263       .  A
C50          O51   1.275       .  A
C50        C1392   1.487       .  S
O51         Cr65   2.036       .  S
O52         Cr65   1.951       .  S
O52          C53   1.256       .  A
C53        C1368   1.468       .  S
O54         Cr63   1.945       .  S
O54          C62   1.251       .  A
O55         Cr63   2.007       .  S
O55          C56   1.266       .  A
C56          O57   1.259       .  A
C56        C1320   1.469   1_554  S
O57         Cr64   1.963       .  S
O58         Cr64   2.029       .  S
O58          C59   1.273       .  A
C59          O60   1.258       .  A
C59        C1419   1.474       .  S
O60         Cr65   1.971       .  S
O61         Cr65   2.054       .  S
O61          C62   1.272       .  A
C62        C1296   1.488   1_455  S
Cr63         O66   1.760       .  S
Cr64         O66   1.772       .  S
Cr65         O66   1.766       .  S
O67         Cr85   1.947       .  S
O67          C75   1.253       .  A
O68         Cr85   2.005       .  S
O68          C69   1.265       .  A
C69          O70   1.259       .  A
C69        C1248   1.473       .  S
O70         Cr86   1.971       .  S
O71         Cr86   2.040       .  S
O71          C72   1.275       .  A
C72          O73   1.259       .  A
C72        C1491   1.478       .  S
O73         Cr87   1.972       .  S
O74         Cr87   2.029       .  S
O74          C75   1.268       .  A
C75        C1227   1.475       .  S
O76         Cr85   2.010       .  S
O76          C84   1.267       .  A
O77         Cr85   1.935       .  S
O77          C78   1.251       .  A
C78          O79   1.275       .  A
C78        C1416   1.484       .  S
O79         Cr86   2.060       .  S
O80         Cr86   1.978       .  S
O80          C81   1.263       .  A
C81          O82   1.270       .  A
C81        C1608   1.481       .  S
O82         Cr87   2.009       .  S
O83         Cr87   1.968       .  S
O83          C84   1.259       .  A
C84        C1272   1.474       .  S
Cr85         O88   1.753       .  S
Cr86         O88   1.773       .  S
Cr87         O88   1.764       .  S
O89        Cr107   2.004       .  S
O89          C97   1.267       .  A
O90        Cr107   1.954       .  S
O90          C91   1.253       .  A
C91          O92   1.268       .  A
C91        C1131   1.474   1_655  S
O92        Cr108   2.032       .  S
O93        Cr108   1.982       .  S
O93          C94   1.261       .  A
C94          O95   1.272       .  A
C94        C1200   1.482       .  S
O95        Cr109   2.030       .  S
O96        Cr109   1.964       .  S
O96          C97   1.261       .  A
C97        C1152   1.471       .  S
O98        Cr107   1.957       .  S
O98         C106   1.254       .  A
O99        Cr107   2.011       .  S
O99         C100   1.267       .  A
C100        O101   1.256       .  A
C100       C1371   1.466       .  S
O101       Cr108   1.958       .  S
O102       Cr108   2.014       .  S
O102        C103   1.270       .  A
C103        O104   1.261       .  A
C103       C1176   1.481       .  S
O104       Cr109   1.978       .  S
O105       Cr109   2.036       .  S
O105        C106   1.269       .  A
C106       C1107   1.476       .  S
Cr107       O110   1.769       .  S
Cr108       O110   1.768       .  S
Cr109       O110   1.772       .  S
O111       Cr129   1.986       .  S
O111        C119   1.256       .  A
O112       Cr129   1.985       .  S
O112        C113   1.265       .  A
C113        O114   1.269       .  A
C113       C1035   1.476       .  S
O114       Cr130   1.998       .  S
O115       Cr130   2.007       .  S
O115        C116   1.267       .  A
C116        O117   1.263       .  A
C116       C1059   1.495       .  S
O117       Cr131   1.992       .  S
O118       Cr131   2.027       .  S
O118        C119   1.265       .  A
C119       C1011   1.494       .  S
O120       Cr129   1.985       .  S
O120        C128   1.266       .  A
O121       Cr129   1.986       .  S
O121        C122   1.258       .  A
C122        O123   1.265       .  A
C122       C1395   1.495       .  S
O123       Cr130   2.025       .  S
O124       Cr130   1.983       .  S
O124        C125   1.263       .  A
C125        O126   1.269       .  A
C125       C1080   1.493       .  S
O126       Cr131   2.011       .  S
O127       Cr131   2.012       .  S
O127        C128   1.271       .  A
C128       C1275   1.478       .  S
Cr129       O132   1.770       .  S
Cr130       O132   1.769       .  S
Cr131       O132   1.771       .  S
O133       Cr151   1.973       .  S
O133        C141   1.268   1_455  A
O134       Cr151   1.981       .  S
O134        C135   1.249       .  A
C135        O136   1.259       .  A
C135        C936   1.484       .  S
O136       Cr152   2.025       .  S
O137       Cr152   1.978       .  S
O137        C138   1.261       .  A
C138        O139   1.265   1_455  A
C138        C960   1.480       .  S
O139       Cr153   1.995       .  S
O140       Cr153   2.017       .  S
O140        C141   1.276       .  A
C141       C1155   1.467       .  S
O142       Cr151   1.978   1_655  S
O142        C150   1.251       .  A
O143       Cr151   1.966       .  S
O143        C144   1.267       .  A
C144        O145   1.276       .  A
C144       C1323   1.465       .  S
O145       Cr152   2.019       .  S
O146       Cr152   2.007       .  S
O146        C147   1.269   1_455  A
C147        O148   1.264       .  A
C147        C984   1.493       .  S
O148       Cr153   1.989       .  S
O149       Cr153   2.021       .  S
O149        C150   1.259       .  A
C150        C912   1.487       .  S
Cr151       O154   1.772       .  S
Cr152       O154   1.772       .  S
Cr153       O154   1.775   1_655  S
O155       Cr173   2.021       .  S
O155        C163   1.268       .  A
O156       Cr173   1.955       .  S
O156        C157   1.251       .  A
C157        O158   1.268       .  A
C157        C840   1.470       .  S
O158       Cr174   2.038       .  S
O159       Cr174   1.981       .  S
O159        C160   1.264       .  A
C160        O161   1.273       .  A
C160       C1008   1.487       .  S
O161       Cr175   2.025       .  S
O162       Cr175   1.969       .  S
O162        C163   1.256       .  A
C163       C1584   1.482       .  S
O164       Cr173   1.951       .  S
O164        C172   1.255   1_545  A
O165       Cr173   2.036       .  S
O165        C166   1.272       .  A
C166        O167   1.257       .  A
C166       C1464   1.482       .  S
O167       Cr174   1.960       .  S
O168       Cr174   2.014       .  S
O168        C169   1.268       .  A
C169        O170   1.262       .  A
C169        C891   1.482       .  S
O170       Cr175   1.985       .  S
O171       Cr175   2.049       .  S
O171        C172   1.274   1_545  A
C172        C864   1.485       .  S
Cr173       O176   1.775       .  S
Cr174       O176   1.775       .  S
Cr175       O176   1.773       .  S
O177       Cr195   1.972       .  S
O177        C185   1.252       .  A
O178       Cr195   1.988       .  S
O178        C179   1.269       .  A
C179        O180   1.271       .  A
C179       C1251   1.474       .  S
O180       Cr196   2.007       .  S
O181       Cr196   2.017       .  S
O181        C182   1.270       .  A
C182        O183   1.260       .  A
C182        C939   1.487       .  S
O183       Cr197   1.976       .  S
O184       Cr197   2.032       .  S
O184        C185   1.264       .  A
C185        C816   1.493       .  S
O186       Cr195   1.992       .  S
O186        C194   1.269       .  A
O187       Cr195   1.977       .  S
O187        C188   1.252       .  A
C188        O189   1.265       .  A
C188        C888   1.493       .  S
O189       Cr196   2.034       .  S
O190       Cr196   1.983       .  S
O190        C191   1.262       .  A
C191        O192   1.267       .  A
C191       C1128   1.488       .  S
O192       Cr197   2.003       .  S
O193       Cr197   1.996       .  S
O193        C194   1.270       .  A
C194       C1032   1.480       .  S
Cr195       O198   1.771       .  S
Cr196       O198   1.770       .  S
Cr197       O198   1.773       .  S
O199       Cr217   1.956       .  S
O199        C207   1.251       .  A
O200       Cr217   2.013       .  S
O200        C201   1.267       .  A
C201        O202   1.259       .  A
C201        C768   1.476       .  S
O202       Cr218   1.957       .  S
O203       Cr218   2.031       .  S
O203        C204   1.274       .  A
C204        O205   1.263       .  A
C204        C867   1.490       .  S
O205       Cr219   1.977       .  S
O206       Cr219   2.041       .  S
O206        C207   1.267       .  A
C207        C744   1.478   1_455  S
O208       Cr217   2.025       .  S
O208        C216   1.271       .  A
O209       Cr217   1.961       .  S
O209        C210   1.257       .  A
C210        O211   1.268       .  A
C210        C963   1.483       .  S
O211       Cr218   2.029       .  S
O212       Cr218   1.993       .  S
O212        C213   1.262       .  A
C213        O214   1.271       .  A
C213       C1440   1.488       .  S
O214       Cr219   2.020       .  S
O215       Cr219   1.959       .  S
O215        C216   1.258       .  A
C216        C792   1.475       .  S
Cr217       O220   1.768       .  S
Cr218       O220   1.771       .  S
Cr219       O220   1.770       .  S
O221       Cr239   1.935       .  S
O221        C229   1.251       .  A
O222       Cr239   2.036       .  S
O222        C223   1.272       .  A
C223        O224   1.257       .  A
C223        C696   1.482       .  S
O224       Cr240   1.953       .  S
O225       Cr240   2.022       .  S
O225        C226   1.272       .  A
C226        O227   1.261       .  A
C226        C648   1.482       .  S
O227       Cr241   1.972       .  S
O228       Cr241   2.061       .  S
O228        C229   1.276       .  A
C229       C1203   1.491   1_565  S
O230       Cr239   2.029       .  S
O230        C238   1.270       .  A
O231       Cr239   1.942       .  S
O231        C232   1.250       .  A
C232        O233   1.270       .  A
C232       C1539   1.482       .  S
O233       Cr240   2.042       .  S
O234       Cr240   1.968       .  S
O234        C235   1.259       .  A
C235        O236   1.274       .  A
C235        C672   1.476       .  S
O236       Cr241   2.034       .  S
O237       Cr241   1.970       .  S
O237        C238   1.258       .  A
C238        C723   1.489       .  S
Cr239       O242   1.757       .  S
Cr240       O242   1.765       .  S
Cr241       O242   1.767       .  S
O243       Cr261   1.980   1_455  S
O243        C251   1.255       .  A
O244       Cr261   1.984       .  S
O244        C245   1.266       .  A
C245        O246   1.273       .  A
C245        C624   1.480       .  S
O246       Cr262   2.016       .  S
O247       Cr262   1.998       .  S
O247        C248   1.265   1_655  A
C248        O249   1.262       .  A
C248       C1344   1.485       .  S
O249       Cr263   1.981       .  S
O250       Cr263   2.011       .  S
O250        C251   1.262       .  A
C251       C1683   1.484       .  S
O252       Cr261   1.993       .  S
O252        C260   1.267       .  A
O253       Cr261   1.978       .  S
O253        C254   1.254       .  A
C254        O255   1.262       .  A
C254        C600   1.480       .  S
O255       Cr262   2.016       .  S
O256       Cr262   1.999       .  S
O256        C257   1.266       .  A
C257        O258   1.265       .  A
C257       C1104   1.490       .  S
O258       Cr263   1.992   1_655  S
O259       Cr263   2.000       .  S
O259        C260   1.270   1_455  A
C260        C771   1.474   1_655  S
Cr261       O264   1.769       .  S
Cr262       O264   1.770       .  S
Cr263       O264   1.768   1_455  S
O265       Cr283   2.024       .  S
O265        C273   1.269       .  A
O266       Cr283   1.942       .  S
O266        C267   1.253       .  A
C267        O268   1.271       .  A
C267        C651   1.475       .  S
O268       Cr284   2.043       .  S
O269       Cr284   1.978       .  S
O269        C270   1.259       .  A
C270        O271   1.271       .  A
C270        C747   1.474       .  S
O271       Cr285   2.028       .  S
O272       Cr285   1.966       .  S
O272        C273   1.256       .  A
C273        C552   1.476       .  S
O274       Cr283   1.950       .  S
O274        C282   1.253       .  A
O275       Cr283   2.027       .  S
O275        C276   1.269       .  A
C276        O277   1.256       .  A
C276        C579   1.473       .  S
O277       Cr284   1.963       .  S
O278       Cr284   2.024       .  S
O278        C279   1.272       .  A
C279        O280   1.260       .  A
C279        C603   1.473       .  S
O280       Cr285   1.964       .  S
O281       Cr285   2.054       .  S
O281        C282   1.275       .  A
C282       C1056   1.477       .  S
Cr283       O286   1.763       .  S
Cr284       O286   1.767       .  S
Cr285       O286   1.766       .  S
O287       Cr305   2.026       .  S
O287        C295   1.270       .  A
O288       Cr305   1.951       .  S
O288        C289   1.253       .  A
C289        O290   1.272       .  A
C289        C504   1.490       .  S
O290       Cr306   2.052       .  S
O291       Cr306   1.971       .  S
O291        C292   1.260       .  A
C292        O293   1.271       .  A
C292       C1224   1.471       .  S
O293       Cr307   2.016       .  S
O294       Cr307   1.956       .  S
O294        C295   1.255       .  A
C295        C528   1.477       .  S
O296       Cr305   1.937       .  S
O296        C304   1.251       .  A
O297       Cr305   2.029       .  S
O297        C298   1.270       .  A
C298        O299   1.256       .  A
C298        C555   1.479       .  S
O299       Cr306   1.948       .  S
O300       Cr306   2.034       .  S
O300        C301   1.275       .  A
C301        O302   1.260       .  A
C301        C819   1.484       .  S
O302       Cr307   1.969       .  S
O303       Cr307   2.045       .  S
O303        C304   1.272       .  A
C304        C675   1.480       .  S
Cr305       O308   1.759       .  S
Cr306       O308   1.764       .  S
Cr307       O308   1.769       .  S
O309       Cr327   1.949       .  S
O309        C317   1.253       .  A
O310       Cr327   2.036       .  S
O310        C311   1.272       .  A
C311        O312   1.257       .  A
C311        C720   1.486       .  S
O312       Cr328   1.965       .  S
O313       Cr328   2.022       .  S
O313        C314   1.273       .  A
C314        O315   1.263       .  A
C314        C915   1.489       .  S
O315       Cr329   1.981       .  S
O316       Cr329   2.054       .  S
O316        C317   1.274       .  A
C317       C1515   1.490       .  S
O318       Cr327   2.038       .  S
O318        C326   1.272       .  A
O319       Cr327   1.943       .  S
O319        C320   1.252       .  A
C320        O321   1.272       .  A
C320        C456   1.487   1_545  S
O321       Cr328   2.054       .  S
O322       Cr328   1.979       .  S
O322        C323   1.262       .  A
C323        O324   1.273       .  A
C323       C1299   1.488       .  S
O324       Cr329   2.022       .  S
O325       Cr329   1.962       .  S
O325        C326   1.256       .  A
C326        C480   1.489   1_556  S
Cr327       O330   1.764       .  S
Cr328       O330   1.770       .  S
Cr329       O330   1.770       .  S
O331       Cr349   1.942   1_545  S
O331        C339   1.251       .  A
O332       Cr349   2.033       .  S
O332        C333   1.270       .  A
C333        O334   1.256       .  A
C333        C699   1.479       .  S
O334       Cr350   1.964       .  S
O335       Cr350   2.033       .  S
O335        C336   1.275   1_565  A
C336        O337   1.261       .  A
C336        C843   1.476       .  S
O337       Cr351   1.965       .  S
O338       Cr351   2.046       .  S
O338        C339   1.271       .  A
C339       C1179   1.472       .  S
O340       Cr349   2.035   1_545  S
O340        C348   1.272       .  A
O341       Cr349   1.940       .  S
O341        C342   1.251       .  A
C342        O343   1.274       .  A
C342        C432   1.479       .  S
O343       Cr350   2.055       .  S
O344       Cr350   1.984       .  S
O344        C345   1.261       .  A
C345        O346   1.270   1_565  A
C345       C1563   1.477       .  S
O346       Cr351   2.025       .  S
O347       Cr351   1.969       .  S
O347        C348   1.259       .  A
C348        C483   1.482       .  S
Cr349       O352   1.758       .  S
Cr350       O352   1.766       .  S
Cr351       O352   1.768   1_545  S
O353       Cr371   1.950       .  S
O353        C361   1.249       .  A
O354       Cr371   2.012       .  S
O354        C355   1.267       .  A
C355        O356   1.258       .  A
C355        C627   1.474       .  S
O356       Cr372   1.960       .  S
O357       Cr372   2.050       .  S
O357        C358   1.278       .  A
C358        O359   1.263       .  A
C358        C411   1.495       .  S
O359       Cr373   1.970       .  S
O360       Cr373   2.045       .  S
O360        C361   1.267       .  A
C361       C1659   1.478   1_655  S
O362       Cr371   2.028       .  S
O362        C370   1.272       .  A
O363       Cr371   1.959       .  S
O363        C364   1.256       .  A
C364        O365   1.275       .  A
C364        C987   1.496       .  S
O365       Cr372   2.053       .  S
O366       Cr372   1.992       .  S
O366        C367   1.262       .  A
C367        O368   1.270       .  A
C367        C507   1.485       .  S
O368       Cr373   2.019       .  S
O369       Cr373   1.954       .  S
O369        C370   1.258       .  A
C370        C795   1.477       .  S
Cr371       O374   1.766       .  S
Cr372       O374   1.771       .  S
Cr373       O374   1.772       .  S
O375       Cr393   2.030       .  S
O375        C383   1.272       .  A
O376       Cr393   1.948       .  S
O376        C377   1.253       .  A
C377        O378   1.276       .  A
C377        C408   1.492       .  S
O378       Cr394   2.058       .  S
O379       Cr394   1.989       .  S
O379        C380   1.262       .  A
C380        O381   1.271       .  A
C380        C459   1.482       .  S
O381       Cr395   2.024       .  S
O382       Cr395   1.956       .  S
O382        C383   1.258       .  A
C383        C531   1.474   1_554  S
O384       Cr393   1.951       .  S
O384        C392   1.249       .  A
O385       Cr393   2.022       .  S
O385        C386   1.269       .  A
C386        O387   1.257       .  A
C386        C576   1.478       .  S
O387       Cr394   1.960       .  S
O388       Cr394   2.044       .  S
O388        C389   1.278       .  A
C389        O390   1.261       .  A
C389        C435   1.489       .  S
O390       Cr395   1.965       .  S
O391       Cr395   2.043       .  S
O391        C392   1.269       .  A
C392       C1083   1.470       .  S
Cr393       O396   1.762       .  S
Cr394       O396   1.766       .  S
Cr395       O396   1.767       .  S
C397        C398   1.403       .  A
C397        C402   1.406       .  A
C397        H413   1.083       .  S
C398        C399   1.404       .  A
C398        H414   1.083       .  S
C399        C409   1.415       .  A
C399        C400   1.416       .  A
C400        C406   1.407       .  A
C400        C401   1.418       .  A
C401        C403   1.414       .  A
C401        C402   1.408       .  A
C402        C410   1.407   1_554  A
C403        C412   1.410   1_554  A
C403        C404   1.403       .  A
C404        C405   1.400       .  A
C404        H415   1.084       .  S
C405        C406   1.405       .  A
C405        H416   1.084       .  S
C406        C407   1.402       .  A
C407        C408   1.413       .  A
C407        H417   1.084       .  S
C408        C409   1.407       .  A
C409        H418   1.084       .  S
C410        C411   1.413       .  A
C410        H419   1.084       .  S
C411        C412   1.409       .  A
C412        H420   1.084       .  S
C421        C422   1.397       .  A
C421        C426   1.402       .  A
C421        H437   1.084       .  S
C422        C423   1.404       .  A
C422        H438   1.084       .  S
C423        C433   1.396       .  A
C423        C424   1.407       .  A
C424        C430   1.417       .  A
C424        C425   1.415       .  A
C425        C427   1.408       .  A
C425        C426   1.414       .  A
C426        C434   1.405       .  A
C427        C436   1.406       .  A
C427        C428   1.406       .  A
C428        C429   1.403       .  A
C428        H439   1.084       .  S
C429        C430   1.404       .  A
C429        H440   1.083       .  S
C430        C431   1.414       .  A
C431        C432   1.405       .  A
C431        H441   1.084       .  S
C432        C433   1.408       .  A
C433        H442   1.085       .  S
C434        C435   1.405       .  A
C434        H443   1.084       .  S
C435        C436   1.413       .  A
C436        H444   1.084       .  S
C445        C446   1.406       .  A
C445        C450   1.407       .  A
C445        H461   1.083       .  S
C446        C447   1.406       .  A
C446        H462   1.083       .  S
C447        C457   1.417       .  A
C447        C448   1.415       .  A
C448        C454   1.408   1_556  A
C448        C449   1.415   1_556  A
C449        C451   1.412       .  A
C449        C450   1.412   1_554  A
C450        C458   1.414   1_556  A
C451        C460   1.400       .  A
C451        C452   1.402       .  A
C452        C453   1.395       .  A
C452        H463   1.084       .  S
C453        C454   1.403       .  A
C453        H464   1.084       .  S
C454        C455   1.395   1_554  A
C455        C456   1.408       .  A
C455        H465   1.085   1_556  S
C456        C457   1.410       .  A
C457        H466   1.084       .  S
C458        C459   1.410       .  A
C458        H467   1.084       .  S
C459        C460   1.404       .  A
C460        H468   1.085       .  S
C469        C470   1.401       .  A
C469        C474   1.403       .  A
C469        H485   1.083       .  S
C470        C471   1.405       .  A
C470        H486   1.084       .  S
C471        C481   1.403       .  A
C471        C472   1.408       .  A
C472        C478   1.415       .  A
C472        C473   1.416       .  A
C473        C475   1.410       .  A
C473        C474   1.414       .  A
C474        C482   1.408       .  A
C475        C484   1.404       .  A
C475        C476   1.404       .  A
C476        C477   1.401       .  A
C476        H487   1.084   1_545  S
C477        C478   1.404       .  A
C477        H488   1.083   1_545  S
C478        C479   1.411       .  A
C479        C480   1.406       .  A
C479        H489   1.084   1_554  S
C480        C481   1.412       .  A
C481        H490   1.085       .  S
C482        C483   1.406       .  A
C482        H491   1.084       .  S
C483        C484   1.408       .  A
C484        H492   1.085   1_545  S
C493        C494   1.406       .  A
C493        C498   1.407       .  A
C493        H509   1.083       .  S
C494        C495   1.406       .  A
C494        H510   1.083       .  S
C495        C505   1.416       .  A
C495        C496   1.413       .  A
C496        C502   1.409       .  A
C496        C497   1.416       .  A
C497        C499   1.411       .  A
C497        C498   1.413       .  A
C498        C506   1.415       .  A
C499        C508   1.399       .  A
C499        C500   1.402       .  A
C500        C501   1.396       .  A
C500        H511   1.084       .  S
C501        C502   1.403       .  A
C501        H512   1.084       .  S
C502        C503   1.398       .  A
C503        C504   1.409       .  A
C503        H513   1.085       .  S
C504        C505   1.410       .  A
C505        H514   1.084       .  S
C506        C507   1.411       .  A
C506        H515   1.084       .  S
C507        C508   1.405       .  A
C508        H516   1.085       .  S
C517        C518   1.398       .  A
C517        C522   1.402       .  A
C517        H533   1.084       .  S
C518        C519   1.404       .  A
C518        H534   1.084       .  S
C519        C529   1.399       .  A
C519        C520   1.409       .  A
C520        C526   1.414       .  A
C520        C521   1.411       .  A
C521        C523   1.409       .  A
C521        C522   1.414       .  A
C522        C530   1.404       .  A
C523        C532   1.400       .  A
C523        C524   1.404       .  A
C524        C525   1.399       .  A
C524        H535   1.084       .  S
C525        C526   1.403       .  A
C525        H536   1.083       .  S
C526        C527   1.405       .  A
C527        C528   1.404       .  A
C527        H537   1.084       .  S
C528        C529   1.409       .  A
C529        H538   1.085       .  S
C530        C531   1.404       .  A
C530        H539   1.084   1_556  S
C531        C532   1.407       .  A
C532        H540   1.085       .  S
C541        C542   1.401       .  A
C541        C546   1.404       .  A
C541        H557   1.083       .  S
C542        C543   1.405       .  A
C542        H558   1.084       .  S
C543        C553   1.404       .  A
C543        C544   1.409       .  A
C544        C550   1.414       .  A
C544        C545   1.412       .  A
C545        C547   1.408       .  A
C545        C546   1.415       .  A
C546        C554   1.409       .  A
C547        C556   1.396       .  A
C547        C548   1.403       .  A
C548        C549   1.396       .  A
C548        H559   1.084       .  S
C549        C550   1.402       .  A
C549        H560   1.084       .  S
C550        C551   1.402       .  A
C551        C552   1.402       .  A
C551        H561   1.084       .  S
C552        C553   1.409       .  A
C553        H562   1.085       .  S
C554        C555   1.406       .  A
C554        H563   1.084       .  S
C555        C556   1.408       .  A
C556        H564   1.085       .  S
C565        C566   1.400       .  A
C565        C570   1.404       .  A
C565        H581   1.083       .  S
C566        C567   1.403       .  A
C566        H582   1.084       .  S
C567        C577   1.406       .  A
C567        C568   1.414       .  A
C568        C574   1.409       .  A
C568        C569   1.412       .  A
C569        C571   1.414       .  A
C569        C570   1.410       .  A
C570        C578   1.402       .  A
C571        C580   1.404       .  A
C571        C572   1.403       .  A
C572        C573   1.398       .  A
C572        H583   1.084       .  S
C573        C574   1.404       .  A
C573        H584   1.084       .  S
C574        C575   1.400       .  A
C575        C576   1.408       .  A
C575        H585   1.085       .  S
C576        C577   1.405       .  A
C577        H586   1.084       .  S
C578        C579   1.407       .  A
C578        H587   1.085       .  S
C579        C580   1.403       .  A
C580        H588   1.084       .  S
C589        C590   1.397       .  A
C589        C594   1.402       .  A
C589        H605   1.084       .  S
C590        C591   1.404       .  A
C590        H606   1.084       .  S
C591        C601   1.396       .  A
C591        C592   1.408       .  A
C592        C598   1.415       .  A
C592        C593   1.412       .  A
C593        C595   1.410       .  A
C593        C594   1.414       .  A
C594        C602   1.403       .  A
C595        C604   1.404       .  A
C595        C596   1.405       .  A
C596        C597   1.402       .  A
C596        H607   1.083       .  S
C597        C598   1.404       .  A
C597        H608   1.083       .  S
C598        C599   1.411       .  A
C599        C600   1.406       .  A
C599        H609   1.084       .  S
C600        C601   1.409       .  A
C601        H610   1.085       .  S
C602        C603   1.402       .  A
C602        H611   1.085       .  S
C603        C604   1.407       .  A
C604        H612   1.084       .  S
C613        C614   1.396       .  A
C613        C618   1.402       .  A
C613        H629   1.084       .  S
C614        C615   1.402       .  A
C614        H630   1.084       .  S
C615        C625   1.399       .  A
C615        C616   1.411       .  A
C616        C622   1.412       .  A
C616        C617   1.412       .  A
C617        C619   1.413       .  A
C617        C618   1.411       .  A
C618        C626   1.398       .  A
C619        C628   1.408       .  A
C619        C620   1.405   1_655  A
C620        C621   1.402       .  A
C620        H631   1.084       .  S
C621        C622   1.405   1_455  A
C621        H632   1.084       .  S
C622        C623   1.408       .  A
C623        C624   1.409       .  A
C623        H633   1.084   1_655  S
C624        C625   1.405       .  A
C625        H634   1.084       .  S
C626        C627   1.404   1_554  A
C626        H635   1.085       .  S
C627        C628   1.407   1_556  A
C628        H636   1.084       .  S
C637        C638   1.403       .  A
C637        C642   1.404       .  A
C637        H653   1.083       .  S
C638        C639   1.406       .  A
C638        H654   1.083       .  S
C639        C649   1.407       .  A
C639        C640   1.410       .  A
C640        C646   1.413       .  A
C640        C641   1.412       .  A
C641        C643   1.408       .  A
C641        C642   1.416       .  A
C642        C650   1.412       .  A
C643        C652   1.394       .  A
C643        C644   1.402       .  A
C644        C645   1.395       .  A
C644        H655   1.084       .  S
C645        C646   1.402       .  A
C645        H656   1.084       .  S
C646        C647   1.400       .  A
C647        C648   1.405       .  A
C647        H657   1.084       .  S
C648        C649   1.411       .  A
C649        H658   1.084       .  S
C650        C651   1.405       .  A
C650        H659   1.084       .  S
C651        C652   1.406       .  A
C652        H660   1.085       .  S
C661        C662   1.396       .  A
C661        C666   1.403       .  A
C661        H677   1.084       .  S
C662        C663   1.402       .  A
C662        H678   1.084       .  S
C663        C673   1.401       .  A
C663        C664   1.413       .  A
C664        C670   1.410       .  A
C664        C665   1.412       .  A
C665        C667   1.415       .  A
C665        C666   1.408       .  A
C666        C674   1.395       .  A
C667        C676   1.411       .  A
C667        C668   1.404       .  A
C668        C669   1.402       .  A
C668        H679   1.083       .  S
C669        C670   1.405       .  A
C669        H680   1.083       .  S
C670        C671   1.406       .  A
C671        C672   1.408       .  A
C671        H681   1.084       .  S
C672        C673   1.404       .  A
C673        H682   1.085       .  S
C674        C675   1.410       .  A
C674        H683   1.085       .  S
C675        C676   1.406       .  A
C676        H684   1.084       .  S
C685        C686   1.401       .  A
C685        C690   1.405       .  A
C685        H701   1.083   1_565  S
C686        C687   1.404       .  A
C686        H702   1.084       .  S
C687        C697   1.410       .  A
C687        C688   1.415       .  A
C688        C694   1.408       .  A
C688        C689   1.414       .  A
C689        C691   1.415       .  A
C689        C690   1.409       .  A
C690        C698   1.404       .  A
C691        C700   1.406       .  A
C691        C692   1.403       .  A
C692        C693   1.398       .  A
C692        H703   1.084       .  S
C693        C694   1.404       .  A
C693        H704   1.084       .  S
C694        C695   1.399       .  A
C695        C696   1.409       .  A
C695        H705   1.085       .  S
C696        C697   1.406       .  A
C697        H706   1.084       .  S
C698        C699   1.409       .  A
C698        H707   1.085       .  S
C699        C700   1.404       .  A
C700        H708   1.084       .  S
C709        C710   1.401       .  A
C709        C714   1.404       .  A
C709        H725   1.083       .  S
C710        C711   1.405       .  A
C710        H726   1.084       .  S
C711        C721   1.404       .  A
C711        C712   1.409       .  A
C712        C718   1.415   1_545  A
C712        C713   1.416   1_545  A
C713        C715   1.409       .  A
C713        C714   1.414   1_565  A
C714        C722   1.410       .  A
C715        C724   1.405       .  A
C715        C716   1.405       .  A
C716        C717   1.401       .  A
C716        H727   1.083       .  S
C717        C718   1.404       .  A
C717        H728   1.083       .  S
C718        C719   1.411       .  A
C719        C720   1.406   1_565  A
C719        H729   1.084       .  S
C720        C721   1.410       .  A
C721        H730   1.085       .  S
C722        C723   1.407   1_545  A
C722        H731   1.084       .  S
C723        C724   1.411       .  A
C724        H732   1.084       .  S
C733        C734   1.404       .  A
C733        C738   1.405       .  A
C733        H749   1.083       .  S
C734        C735   1.406       .  A
C734        H750   1.083       .  S
C735        C745   1.413       .  A
C735        C736   1.414       .  A
C736        C742   1.411       .  A
C736        C737   1.415       .  A
C737        C739   1.413       .  A
C737        C738   1.413       .  A
C738        C746   1.411       .  A
C739        C748   1.401       .  A
C739        C740   1.402       .  A
C740        C741   1.397       .  A
C740        H751   1.084       .  S
C741        C742   1.403       .  A
C741        H752   1.084       .  S
C742        C743   1.400       .  A
C743        C744   1.405       .  A
C743        H753   1.085       .  S
C744        C745   1.408       .  A
C745        H754   1.084       .  S
C746        C747   1.407       .  A
C746        H755   1.084       .  S
C747        C748   1.402       .  A
C748        H756   1.085       .  S
C757        C758   1.403       .  A
C757        C762   1.405       .  A
C757        H773   1.083       .  S
C758        C759   1.405       .  A
C758        H774   1.083       .  S
C759        C769   1.408   1_655  A
C759        C760   1.412   1_655  A
C760        C766   1.411       .  A
C760        C761   1.410       .  A
C761        C763   1.410       .  A
C761        C762   1.413   1_455  A
C762        C770   1.410       .  A
C763        C772   1.393       .  A
C763        C764   1.401       .  A
C764        C765   1.393       .  A
C764        H775   1.084       .  S
C765        C766   1.401       .  A
C765        H776   1.084       .  S
C766        C767   1.394       .  A
C767        C768   1.404       .  A
C767        H777   1.085       .  S
C768        C769   1.409       .  A
C769        H778   1.084   1_455  S
C770        C771   1.407   1_655  A
C770        H779   1.084       .  S
C771        C772   1.404       .  A
C772        H780   1.085       .  S
C781        C782   1.398       .  A
C781        C786   1.404       .  A
C781        H797   1.084       .  S
C782        C783   1.402       .  A
C782        H798   1.084       .  S
C783        C793   1.403       .  A
C783        C784   1.414       .  A
C784        C790   1.409   1_655  A
C784        C785   1.411       .  A
C785        C787   1.414   1_655  A
C785        C786   1.409       .  A
C786        C794   1.398       .  A
C787        C796   1.406       .  A
C787        C788   1.403       .  A
C788        C789   1.399       .  A
C788        H799   1.083       .  S
C789        C790   1.404       .  A
C789        H800   1.084       .  S
C790        C791   1.401       .  A
C791        C792   1.408       .  A
C791        H801   1.085       .  S
C792        C793   1.403   1_455  A
C793        H802   1.084       .  S
C794        C795   1.408       .  A
C794        H803   1.085       .  S
C795        C796   1.405   1_655  A
C796        H804   1.084       .  S
C805        C806   1.405       .  A
C805        C810   1.407       .  A
C805        H821   1.083       .  S
C806        C807   1.405       .  A
C806        H822   1.083       .  S
C807        C817   1.417       .  A
C807        C808   1.416       .  A
C808        C814   1.406       .  A
C808        C809   1.415       .  A
C809        C811   1.414       .  A
C809        C810   1.409       .  A
C810        C818   1.409       .  A
C811        C820   1.402       .  A
C811        C812   1.401       .  A
C812        C813   1.395       .  A
C812        H823   1.084       .  S
C813        C814   1.404       .  A
C813        H824   1.084       .  S
C814        C815   1.395       .  A
C815        C816   1.413       .  A
C815        H825   1.084       .  S
C816        C817   1.410       .  A
C817        H826   1.084       .  S
C818        C819   1.412       .  A
C818        H827   1.084       .  S
C819        C820   1.403       .  A
C820        H828   1.084       .  S
C829        C830   1.400       .  A
C829        C834   1.404       .  A
C829        H845   1.084       .  S
C830        C831   1.403       .  A
C830        H846   1.084       .  S
C831        C841   1.407       .  A
C831        C832   1.414       .  A
C832        C838   1.411       .  A
C832        C833   1.414       .  A
C833        C835   1.414       .  A
C833        C834   1.411       .  A
C834        C842   1.403       .  A
C835        C844   1.407       .  A
C835        C836   1.403       .  A
C836        C837   1.400       .  A
C836        H847   1.083   1_545  S
C837        C838   1.404       .  A
C837        H848   1.084       .  S
C838        C839   1.404       .  A
C839        C840   1.405       .  A
C839        H849   1.085       .  S
C840        C841   1.403       .  A
C841        H850   1.084       .  S
C842        C843   1.406       .  A
C842        H851   1.085       .  S
C843        C844   1.404       .  A
C844        H852   1.084   1_545  S
C853        C854   1.402       .  A
C853        C858   1.405       .  A
C853        H869   1.083       .  S
C854        C855   1.404       .  A
C854        H870   1.083       .  S
C855        C865   1.412       .  A
C855        C856   1.415       .  A
C856        C862   1.409       .  A
C856        C857   1.416       .  A
C857        C859   1.413       .  A
C857        C858   1.410       .  A
C858        C866   1.406       .  A
C859        C868   1.407       .  A
C859        C860   1.404       .  A
C860        C861   1.400       .  A
C860        H871   1.084       .  S
C861        C862   1.405       .  A
C861        H872   1.084       .  S
C862        C863   1.403       .  A
C863        C864   1.411       .  A
C863        H873   1.085       .  S
C864        C865   1.405       .  A
C865        H874   1.084       .  S
C866        C867   1.411       .  A
C866        H875   1.084       .  S
C867        C868   1.408       .  A
C868        H876   1.084       .  S
C877        C878   1.404       .  A
C877        C882   1.406       .  A
C877        H893   1.083       .  S
C878        C879   1.405       .  A
C878        H894   1.083       .  S
C879        C889   1.415       .  A
C879        C880   1.415       .  A
C880        C886   1.408       .  A
C880        C881   1.417       .  A
C881        C883   1.414       .  A
C881        C882   1.411       .  A
C882        C890   1.410       .  A
C883        C892   1.405       .  A
C883        C884   1.403       .  A
C884        C885   1.399       .  A
C884        H895   1.084       .  S
C885        C886   1.405       .  A
C885        H896   1.084       .  S
C886        C887   1.401       .  A
C887        C888   1.413       .  A
C887        H897   1.084       .  S
C888        C889   1.408       .  A
C889        H898   1.084       .  S
C890        C891   1.408       .  A
C890        H899   1.084       .  S
C891        C892   1.405       .  A
C892        H900   1.085       .  S
C901        C902   1.395       .  A
C901        C906   1.401       .  A
C901        H917   1.084       .  S
C902        C903   1.402       .  A
C902        H918   1.084       .  S
C903        C913   1.396       .  A
C903        C904   1.408       .  A
C904        C910   1.414       .  A
C904        C905   1.415       .  A
C905        C907   1.411       .  A
C905        C906   1.412       .  A
C906        C914   1.400       .  A
C907        C916   1.412       .  A
C907        C908   1.407       .  A
C908        C909   1.406       .  A
C908        H919   1.083       .  S
C909        C910   1.406       .  A
C909        H920   1.083       .  S
C910        C911   1.416       .  A
C911        C912   1.409       .  A
C911        H921   1.084       .  S
C912        C913   1.408       .  A
C913        H922   1.085       .  S
C914        C915   1.406       .  A
C914        H923   1.084       .  S
C915        C916   1.413       .  A
C916        H924   1.084       .  S
C925        C926   1.400       .  A
C925        C930   1.403       .  A
C925        H941   1.083       .  S
C926        C927   1.405       .  A
C926        H942   1.084       .  S
C927        C937   1.402       .  A
C927        C928   1.408       .  A
C928        C934   1.416       .  A
C928        C929   1.416       .  A
C929        C931   1.408       .  A
C929        C930   1.416       .  A
C930        C938   1.410       .  A
C931        C940   1.404       .  A
C931        C932   1.406       .  A
C932        C933   1.402       .  A
C932        H943   1.084       .  S
C933        C934   1.404       .  A
C933        H944   1.084       .  S
C934        C935   1.412       .  A
C935        C936   1.407       .  A
C935        H945   1.084       .  S
C936        C937   1.409       .  A
C937        H946   1.085       .  S
C938        C939   1.405       .  A
C938        H947   1.084       .  S
C939        C940   1.412       .  A
C940        H948   1.084       .  S
C949        C950   1.402       .  A
C949        C954   1.405       .  A
C949        H965   1.083       .  S
C950        C951   1.405       .  A
C950        H966   1.083       .  S
C951        C961   1.406       .  A
C951        C952   1.410       .  A
C952        C958   1.413   1_455  A
C952        C953   1.414       .  A
C953        C955   1.409       .  A
C953        C954   1.414       .  A
C954        C962   1.411       .  A
C955        C964   1.399       .  A
C955        C956   1.403   1_455  A
C956        C957   1.397       .  A
C956        H967   1.084       .  S
C957        C958   1.402       .  A
C957        H968   1.084       .  S
C958        C959   1.403       .  A
C959        C960   1.404   1_655  A
C959        H969   1.084       .  S
C960        C961   1.410       .  A
C961        H970   1.084       .  S
C962        C963   1.408       .  A
C962        H971   1.084       .  S
C963        C964   1.408       .  A
C964        H972   1.084   1_455  S
C973        C974   1.400       .  A
C973        C978   1.405   1_455  A
C973        H989   1.084       .  S
C974        C975   1.403   1_455  A
C974        H990   1.084       .  S
C975        C985   1.409   1_655  A
C975        C976   1.414       .  A
C976        C982   1.409       .  A
C976        C977   1.419       .  A
C977        C979   1.415       .  A
C977        C978   1.408       .  A
C978        C986   1.404       .  A
C979        C988   1.416       .  A
C979        C980   1.405       .  A
C980        C981   1.404       .  A
C980        H991   1.083       .  S
C981        C982   1.406       .  A
C981        H992   1.083       .  S
C982        C983   1.410       .  A
C983        C984   1.413       .  A
C983        H993   1.084       .  S
C984        C985   1.408   1_655  A
C985        H994   1.084       .  S
C986        C987   1.413       .  A
C986        H995   1.084       .  S
C987        C988   1.409       .  A
C988        H996   1.084       .  S
C997        C998   1.405       .  A
C997       C1002   1.405       .  A
C997       H1013   1.083       .  S
C998        C999   1.406       .  A
C998       H1014   1.083       .  S
C999       C1009   1.411       .  A
C999       C1000   1.411       .  A
C1000      C1006   1.413       .  A
C1000      C1001   1.417       .  A
C1001      C1003   1.408       .  A
C1001      C1002   1.414       .  A
C1002      C1010   1.416       .  A
C1003      C1012   1.401       .  A
C1003      C1004   1.404       .  A
C1004      C1005   1.398       .  A
C1004      H1015   1.084       .  S
C1005      C1006   1.402       .  A
C1005      H1016   1.084       .  S
C1006      C1007   1.405       .  A
C1007      C1008   1.405       .  A
C1007      H1017   1.085       .  S
C1008      C1009   1.411       .  A
C1009      H1018   1.084       .  S
C1010      C1011   1.410       .  A
C1010      H1019   1.084       .  S
C1011      C1012   1.412       .  A
C1012      H1020   1.084       .  S
C1021      C1022   1.402       .  A
C1021      C1026   1.405       .  A
C1021      H1037   1.083       .  S
C1022      C1023   1.405       .  A
C1022      H1038   1.083       .  S
C1023      C1033   1.409       .  A
C1023      C1024   1.413       .  A
C1024      C1030   1.409       .  A
C1024      C1025   1.410       .  A
C1025      C1027   1.411       .  A
C1025      C1026   1.412       .  A
C1026      C1034   1.407       .  A
C1027      C1036   1.394       .  A
C1027      C1028   1.401       .  A
C1028      C1029   1.393       .  A
C1028      H1039   1.084       .  S
C1029      C1030   1.402       .  A
C1029      H1040   1.084       .  S
C1030      C1031   1.392       .  A
C1031      C1032   1.407       .  A
C1031      H1041   1.084       .  S
C1032      C1033   1.408       .  A
C1033      H1042   1.084       .  S
C1034      C1035   1.408       .  A
C1034      H1043   1.084       .  S
C1035      C1036   1.405       .  A
C1036      H1044   1.084       .  S
C1045      C1046   1.402       .  A
C1045      C1050   1.404       .  A
C1045      H1061   1.083       .  S
C1046      C1047   1.405       .  A
C1046      H1062   1.083       .  S
C1047      C1057   1.406       .  A
C1047      C1048   1.410       .  A
C1048      C1054   1.414       .  A
C1048      C1049   1.417       .  A
C1049      C1051   1.409       .  A
C1049      C1050   1.414       .  A
C1050      C1058   1.411       .  A
C1051      C1060   1.405       .  A
C1051      C1052   1.405       .  A
C1052      C1053   1.401       .  A
C1052      H1063   1.083       .  S
C1053      C1054   1.404       .  A
C1053      H1064   1.084       .  S
C1054      C1055   1.410       .  A
C1055      C1056   1.405       .  A
C1055      H1065   1.084       .  S
C1056      C1057   1.408       .  A
C1057      H1066   1.085       .  S
C1058      C1059   1.409       .  A
C1058      H1067   1.084       .  S
C1059      C1060   1.413       .  A
C1060      H1068   1.084       .  S
C1069      C1070   1.401       .  A
C1069      C1074   1.405       .  A
C1069      H1085   1.083       .  S
C1070      C1071   1.404       .  A
C1070      H1086   1.084       .  S
C1071      C1081   1.411       .  A
C1071      C1072   1.415       .  A
C1072      C1078   1.407       .  A
C1072      C1073   1.415       .  A
C1073      C1075   1.415       .  A
C1073      C1074   1.409       .  A
C1074      C1082   1.404       .  A
C1075      C1084   1.407       .  A
C1075      C1076   1.402       .  A
C1076      C1077   1.399       .  A
C1076      H1087   1.084       .  S
C1077      C1078   1.405       .  A
C1077      H1088   1.083       .  S
C1078      C1079   1.401       .  A
C1079      C1080   1.413       .  A
C1079      H1089   1.084       .  S
C1080      C1081   1.408       .  A
C1081      H1090   1.084       .  S
C1082      C1083   1.406       .  A
C1082      H1091   1.085       .  S
C1083      C1084   1.403       .  A
C1084      H1092   1.084       .  S
C1093      C1094   1.399       .  A
C1093      C1098   1.404       .  A
C1093      H1109   1.083   1_655  S
C1094      C1095   1.403       .  A
C1094      H1110   1.084   1_655  S
C1095      C1105   1.406       .  A
C1095      C1096   1.413       .  A
C1096      C1102   1.410       .  A
C1096      C1097   1.415       .  A
C1097      C1099   1.415       .  A
C1097      C1098   1.410       .  A
C1098      C1106   1.402       .  A
C1099      C1108   1.410       .  A
C1099      C1100   1.404       .  A
C1100      C1101   1.402       .  A
C1100      H1111   1.084       .  S
C1101      C1102   1.405       .  A
C1101      H1112   1.083       .  S
C1102      C1103   1.406       .  A
C1103      C1104   1.411       .  A
C1103      H1113   1.084       .  S
C1104      C1105   1.408       .  A
C1105      H1114   1.084   1_655  S
C1106      C1107   1.406       .  A
C1106      H1115   1.085       .  S
C1107      C1108   1.404       .  A
C1108      H1116   1.084       .  S
C1117      C1118   1.401       .  A
C1117      C1122   1.403       .  A
C1117      H1133   1.083       .  S
C1118      C1119   1.405       .  A
C1118      H1134   1.083       .  S
C1119      C1129   1.404       .  A
C1119      C1120   1.409       .  A
C1120      C1126   1.414       .  A
C1120      C1121   1.414       .  A
C1121      C1123   1.409       .  A
C1121      C1122   1.415       .  A
C1122      C1130   1.410       .  A
C1123      C1132   1.401       .  A
C1123      C1124   1.404       .  A
C1124      C1125   1.399       .  A
C1124      H1135   1.084       .  S
C1125      C1126   1.403       .  A
C1125      H1136   1.084       .  S
C1126      C1127   1.407       .  A
C1127      C1128   1.406       .  A
C1127      H1137   1.084       .  S
C1128      C1129   1.412       .  A
C1129      H1138   1.084       .  S
C1130      C1131   1.404       .  A
C1130      H1139   1.084   1_455  S
C1131      C1132   1.406       .  A
C1132      H1140   1.085       .  S
C1141      C1142   1.395       .  A
C1141      C1146   1.402       .  A
C1141      H1157   1.084       .  S
C1142      C1143   1.402       .  A
C1142      H1158   1.084       .  S
C1143      C1153   1.397       .  A
C1143      C1144   1.412       .  A
C1144      C1150   1.411       .  A
C1144      C1145   1.408       .  A
C1145      C1147   1.413       .  A
C1145      C1146   1.411       .  A
C1146      C1154   1.396       .  A
C1147      C1156   1.403       .  A
C1147      C1148   1.404   1_655  A
C1148      C1149   1.400       .  A
C1148      H1159   1.084       .  S
C1149      C1150   1.404   1_455  A
C1149      H1160   1.084       .  S
C1150      C1151   1.402       .  A
C1151      C1152   1.406       .  A
C1151      H1161   1.084       .  S
C1152      C1153   1.403       .  A
C1153      H1162   1.084       .  S
C1154      C1155   1.402       .  A
C1154      H1163   1.085       .  S
C1155      C1156   1.405       .  A
C1156      H1164   1.085   1_655  S
C1165      C1166   1.403       .  A
C1165      C1170   1.404       .  A
C1165      H1181   1.083       .  S
C1166      C1167   1.405       .  A
C1166      H1182   1.083       .  S
C1167      C1177   1.407       .  A
C1167      C1168   1.410       .  A
C1168      C1174   1.412       .  A
C1168      C1169   1.412       .  A
C1169      C1171   1.409       .  A
C1169      C1170   1.415       .  A
C1170      C1178   1.411       .  A
C1171      C1180   1.394       .  A
C1171      C1172   1.403       .  A
C1172      C1173   1.395       .  A
C1172      H1183   1.084       .  S
C1173      C1174   1.402       .  A
C1173      H1184   1.084       .  S
C1174      C1175   1.398       .  A
C1175      C1176   1.405       .  A
C1175      H1185   1.084       .  S
C1176      C1177   1.410       .  A
C1177      H1186   1.084       .  S
C1178      C1179   1.404       .  A
C1178      H1187   1.084       .  S
C1179      C1180   1.405       .  A
C1180      H1188   1.085       .  S
C1189      C1190   1.406       .  A
C1189      C1194   1.405       .  A
C1189      H1205   1.083       .  S
C1190      C1191   1.406       .  A
C1190      H1206   1.083       .  S
C1191      C1201   1.412       .  A
C1191      C1192   1.411       .  A
C1192      C1198   1.413       .  A
C1192      C1193   1.416       .  A
C1193      C1195   1.407       .  A
C1193      C1194   1.415       .  A
C1194      C1202   1.417       .  A
C1195      C1204   1.396       .  A
C1195      C1196   1.404       .  A
C1196      C1197   1.396       .  A
C1196      H1207   1.084       .  S
C1197      C1198   1.402       .  A
C1197      H1208   1.084       .  S
C1198      C1199   1.401       .  A
C1199      C1200   1.404       .  A
C1199      H1209   1.085       .  S
C1200      C1201   1.410       .  A
C1201      H1210   1.084       .  S
C1202      C1203   1.409       .  A
C1202      H1211   1.084       .  S
C1203      C1204   1.412       .  A
C1204      H1212   1.085       .  S
C1213      C1214   1.394       .  A
C1213      C1218   1.402       .  A
C1213      H1229   1.083       .  S
C1214      C1215   1.401       .  A
C1214      H1230   1.084       .  S
C1215      C1225   1.395       .  A
C1215      C1216   1.412       .  A
C1216      C1222   1.412       .  A
C1216      C1217   1.409       .  A
C1217      C1219   1.413       .  A
C1217      C1218   1.409       .  A
C1218      C1226   1.393       .  A
C1219      C1228   1.407       .  A
C1219      C1220   1.404       .  A
C1220      C1221   1.402       .  A
C1220      H1231   1.083       .  S
C1221      C1222   1.405       .  A
C1221      H1232   1.083       .  S
C1222      C1223   1.406       .  A
C1223      C1224   1.407       .  A
C1223      H1233   1.084       .  S
C1224      C1225   1.403       .  A
C1225      H1234   1.085       .  S
C1226      C1227   1.406       .  A
C1226      H1235   1.085       .  S
C1227      C1228   1.407       .  A
C1228      H1236   1.084       .  S
C1237      C1238   1.398       .  A
C1237      C1242   1.404       .  A
C1237      H1253   1.084       .  S
C1238      C1239   1.403       .  A
C1238      H1254   1.083       .  S
C1239      C1249   1.403       .  A
C1239      C1240   1.413       .  A
C1240      C1246   1.411       .  A
C1240      C1241   1.411       .  A
C1241      C1243   1.414       .  A
C1241      C1242   1.410       .  A
C1242      C1250   1.399       .  A
C1243      C1252   1.405       .  A
C1243      C1244   1.403       .  A
C1244      C1245   1.399       .  A
C1244      H1255   1.083       .  S
C1245      C1246   1.403       .  A
C1245      H1256   1.083       .  S
C1246      C1247   1.401       .  A
C1247      C1248   1.406       .  A
C1247      H1257   1.085       .  S
C1248      C1249   1.405       .  A
C1249      H1258   1.084       .  S
C1250      C1251   1.407       .  A
C1250      H1259   1.085       .  S
C1251      C1252   1.404       .  A
C1252      H1260   1.084       .  S
C1261      C1262   1.401       .  A
C1261      C1266   1.404       .  A
C1261      H1277   1.082       .  S
C1262      C1263   1.404       .  A
C1262      H1278   1.085       .  S
C1263      C1273   1.404       .  A
C1263      C1264   1.411       .  A
C1264      C1270   1.412       .  A
C1264      C1265   1.412       .  A
C1265      C1267   1.411       .  A
C1265      C1266   1.413       .  A
C1266      C1274   1.407       .  A
C1267      C1276   1.399       .  A
C1267      C1268   1.403       .  A
C1268      C1269   1.397       .  A
C1268      H1279   1.084       .  S
C1269      C1270   1.402       .  A
C1269      H1280   1.083       .  S
C1270      C1271   1.401       .  A
C1271      C1272   1.404   1_554  A
C1271      H1281   1.084       .  S
C1272      C1273   1.407   1_556  A
C1273      H1282   1.086   1_554  S
C1274      C1275   1.407       .  A
C1274      H1283   1.083       .  S
C1275      C1276   1.406       .  A
C1276      H1284   1.085       .  S
C1285      C1286   1.394       .  A
C1285      C1290   1.401   1_554  A
C1285      H1301   1.084   1_554  S
C1286      C1287   1.403       .  A
C1286      H1302   1.084       .  S
C1287      C1297   1.394       .  A
C1287      C1288   1.407       .  A
C1288      C1294   1.415       .  A
C1288      C1289   1.415       .  A
C1289      C1291   1.410       .  A
C1289      C1290   1.412   1_554  A
C1290      C1298   1.399       .  A
C1291      C1300   1.411   1_554  A
C1291      C1292   1.407       .  A
C1292      C1293   1.406       .  A
C1292      H1303   1.083       .  S
C1293      C1294   1.406       .  A
C1293      H1304   1.083       .  S
C1294      C1295   1.417       .  A
C1295      C1296   1.409       .  A
C1295      H1305   1.084       .  S
C1296      C1297   1.409       .  A
C1297      H1306   1.085       .  S
C1298      C1299   1.406       .  A
C1298      H1307   1.084       .  S
C1299      C1300   1.413       .  A
C1300      H1308   1.084       .  S
C1309      C1310   1.397       .  A
C1309      C1314   1.403       .  A
C1309      H1325   1.084       .  S
C1310      C1311   1.403       .  A
C1310      H1326   1.084       .  S
C1311      C1321   1.399       .  A
C1311      C1312   1.411       .  A
C1312      C1318   1.412       .  A
C1312      C1313   1.408       .  A
C1313      C1315   1.412       .  A
C1313      C1314   1.412       .  A
C1314      C1322   1.399       .  A
C1315      C1324   1.399       .  A
C1315      C1316   1.403   1_455  A
C1316      C1317   1.398       .  A
C1316      H1327   1.084       .  S
C1317      C1318   1.403   1_655  A
C1317      H1328   1.084       .  S
C1318      C1319   1.400       .  A
C1319      C1320   1.404       .  A
C1319      H1329   1.085       .  S
C1320      C1321   1.404       .  A
C1321      H1330   1.084       .  S
C1322      C1323   1.403       .  A
C1322      H1331   1.085       .  S
C1323      C1324   1.403       .  A
C1324      H1332   1.085   1_455  S
C1333      C1334   1.400       .  A
C1333      C1338   1.403       .  A
C1333      H1349   1.083       .  S
C1334      C1335   1.405       .  A
C1334      H1350   1.084       .  S
C1335      C1345   1.401       .  A
C1335      C1336   1.408       .  A
C1336      C1342   1.414       .  A
C1336      C1337   1.413       .  A
C1337      C1339   1.409       .  A
C1337      C1338   1.416       .  A
C1338      C1346   1.409       .  A
C1339      C1348   1.399       .  A
C1339      C1340   1.404       .  A
C1340      C1341   1.399   1_455  A
C1340      H1351   1.084   1_455  S
C1341      C1342   1.403   1_655  A
C1341      H1352   1.084       .  S
C1342      C1343   1.406       .  A
C1343      C1344   1.406       .  A
C1343      H1353   1.084   1_455  S
C1344      C1345   1.411       .  A
C1345      H1354   1.084       .  S
C1346      C1347   1.402       .  A
C1346      H1355   1.084       .  S
C1347      C1348   1.407       .  A
C1348      H1356   1.085       .  S
C1357      C1358   1.399       .  A
C1357      C1362   1.404       .  A
C1357      H1373   1.084       .  S
C1358      C1359   1.403       .  A
C1358      H1374   1.083       .  S
C1359      C1369   1.404       .  A
C1359      C1360   1.414   1_655  A
C1360      C1366   1.409       .  A
C1360      C1361   1.408   1_455  A
C1361      C1363   1.414   1_655  A
C1361      C1362   1.410       .  A
C1362      C1370   1.399       .  A
C1363      C1372   1.400       .  A
C1363      C1364   1.401       .  A
C1364      C1365   1.396       .  A
C1364      H1375   1.084       .  S
C1365      C1366   1.403       .  A
C1365      H1376   1.084       .  S
C1366      C1367   1.395       .  A
C1367      C1368   1.405       .  A
C1367      H1377   1.085       .  S
C1368      C1369   1.403   1_455  A
C1369      H1378   1.084       .  S
C1370      C1371   1.406       .  A
C1370      H1379   1.085       .  S
C1371      C1372   1.401   1_655  A
C1372      H1380   1.084       .  S
C1381      C1382   1.398       .  A
C1381      C1386   1.404       .  A
C1381      H1397   1.084       .  S
C1382      C1383   1.402       .  A
C1382      H1398   1.084       .  S
C1383      C1393   1.406       .  A
C1383      C1384   1.414       .  A
C1384      C1390   1.410       .  A
C1384      C1385   1.417       .  A
C1385      C1387   1.415       .  A
C1385      C1386   1.407       .  A
C1386      C1394   1.399       .  A
C1387      C1396   1.417       .  A
C1387      C1388   1.406       .  A
C1388      C1389   1.405       .  A
C1388      H1399   1.083       .  S
C1389      C1390   1.407       .  A
C1389      H1400   1.083       .  S
C1390      C1391   1.411       .  A
C1391      C1392   1.412       .  A
C1391      H1401   1.084       .  S
C1392      C1393   1.404       .  A
C1393      H1402   1.084       .  S
C1394      C1395   1.411       .  A
C1394      H1403   1.084       .  S
C1395      C1396   1.410       .  A
C1396      H1404   1.084       .  S
C1405      C1406   1.404       .  A
C1405      C1410   1.406       .  A
C1405      H1421   1.084       .  S
C1406      C1407   1.406       .  A
C1406      H1422   1.082       .  S
C1407      C1417   1.415       .  A
C1407      C1408   1.415       .  A
C1408      C1414   1.407   1_556  A
C1408      C1409   1.413   1_556  A
C1409      C1411   1.413       .  A
C1409      C1410   1.411   1_554  A
C1410      C1418   1.409   1_556  A
C1411      C1420   1.399       .  A
C1411      C1412   1.401       .  A
C1412      C1413   1.395       .  A
C1412      H1423   1.081       .  S
C1413      C1414   1.402       .  A
C1413      H1424   1.087       .  S
C1414      C1415   1.394   1_554  A
C1415      C1416   1.409       .  A
C1415      H1425   1.088       .  S
C1416      C1417   1.408       .  A
C1417      H1426   1.083       .  S
C1418      C1419   1.409       .  A
C1418      H1427   1.085   1_554  S
C1419      C1420   1.402       .  A
C1420      H1428   1.084       .  S
C1429      C1430   1.394       .  A
C1429      C1434   1.403       .  A
C1429      H1445   1.084       .  S
C1430      C1431   1.401       .  A
C1430      H1446   1.084       .  S
C1431      C1441   1.399       .  A
C1431      C1432   1.412       .  A
C1432      C1438   1.411       .  A
C1432      C1433   1.417       .  A
C1433      C1435   1.415       .  A
C1433      C1434   1.407       .  A
C1434      C1442   1.395       .  A
C1435      C1444   1.421       .  A
C1435      C1436   1.407       .  A
C1436      C1437   1.408       .  A
C1436      H1447   1.083       .  S
C1437      C1438   1.408       .  A
C1437      H1448   1.083       .  S
C1438      C1439   1.416       .  A
C1439      C1440   1.413       .  A
C1439      H1449   1.084       .  S
C1440      C1441   1.404       .  A
C1441      H1450   1.085       .  S
C1442      C1443   1.411       .  A
C1442      H1451   1.085       .  S
C1443      C1444   1.412       .  A
C1444      H1452   1.083       .  S
C1453      C1454   1.400       .  A
C1453      C1458   1.403       .  A
C1453      H1469   1.084       .  S
C1454      C1455   1.404       .  A
C1454      H1470   1.084       .  S
C1455      C1465   1.401       .  A
C1455      C1456   1.408       .  A
C1456      C1462   1.415       .  A
C1456      C1457   1.414       .  A
C1457      C1459   1.408       .  A
C1457      C1458   1.416       .  A
C1458      C1466   1.409       .  A
C1459      C1468   1.400       .  A
C1459      C1460   1.405       .  A
C1460      C1461   1.400       .  A
C1460      H1471   1.084       .  S
C1461      C1462   1.403       .  A
C1461      H1472   1.084       .  S
C1462      C1463   1.409       .  A
C1463      C1464   1.406       .  A
C1463      H1473   1.084       .  S
C1464      C1465   1.409       .  A
C1465      H1474   1.085       .  S
C1466      C1467   1.404       .  A
C1466      H1475   1.084       .  S
C1467      C1468   1.411       .  A
C1468      H1476   1.085       .  S
C1477      C1478   1.404       .  A
C1477      C1482   1.406       .  A
C1477      H1493   1.083       .  S
C1478      C1479   1.405       .  A
C1478      H1494   1.083       .  S
C1479      C1489   1.414       .  A
C1479      C1480   1.414       .  A
C1480      C1486   1.409       .  A
C1480      C1481   1.415       .  A
C1481      C1483   1.413       .  A
C1481      C1482   1.411       .  A
C1482      C1490   1.410       .  A
C1483      C1492   1.402       .  A
C1483      C1484   1.402       .  A
C1484      C1485   1.397       .  A
C1484      H1495   1.084       .  S
C1485      C1486   1.403       .  A
C1485      H1496   1.084       .  S
C1486      C1487   1.398       .  A
C1487      C1488   1.409       .  A
C1487      H1497   1.085       .  S
C1488      C1489   1.409       .  A
C1489      H1498   1.084       .  S
C1490      C1491   1.409       .  A
C1490      H1499   1.084       .  S
C1491      C1492   1.404       .  A
C1492      H1500   1.085       .  S
C1501      C1502   1.399       .  A
C1501      C1506   1.404       .  A
C1501      H1517   1.084       .  S
C1502      C1503   1.403       .  A
C1502      H1518   1.084   1_545  S
C1503      C1513   1.405       .  A
C1503      C1504   1.413       .  A
C1504      C1510   1.412       .  A
C1504      C1505   1.417       .  A
C1505      C1507   1.414       .  A
C1505      C1506   1.409       .  A
C1506      C1514   1.401       .  A
C1507      C1516   1.415       .  A
C1507      C1508   1.405       .  A
C1508      C1509   1.404       .  A
C1508      H1519   1.083       .  S
C1509      C1510   1.406       .  A
C1509      H1520   1.083       .  S
C1510      C1511   1.411       .  A
C1511      C1512   1.408       .  A
C1511      H1521   1.084       .  S
C1512      C1513   1.407       .  A
C1513      H1522   1.084   1_545  S
C1514      C1515   1.411       .  A
C1514      H1523   1.085       .  S
C1515      C1516   1.408       .  A
C1516      H1524   1.084       .  S
C1525      C1526   1.393       .  A
C1525      C1530   1.402       .  A
C1525      H1541   1.084   1_565  S
C1526      C1527   1.401       .  A
C1526      H1542   1.084   1_565  S
C1527      C1537   1.395       .  A
C1527      C1528   1.411       .  A
C1528      C1534   1.411       .  A
C1528      C1529   1.411       .  A
C1529      C1531   1.414       .  A
C1529      C1530   1.408       .  A
C1530      C1538   1.392       .  A
C1531      C1540   1.411       .  A
C1531      C1532   1.405       .  A
C1532      C1533   1.403       .  A
C1532      H1543   1.083       .  S
C1533      C1534   1.405       .  A
C1533      H1544   1.083       .  S
C1534      C1535   1.409       .  A
C1535      C1536   1.409       .  A
C1535      H1545   1.084       .  S
C1536      C1537   1.404       .  A
C1537      H1546   1.085   1_565  S
C1538      C1539   1.409       .  A
C1538      H1547   1.085       .  S
C1539      C1540   1.408       .  A
C1540      H1548   1.084       .  S
C1549      C1550   1.405       .  A
C1549      C1554   1.406       .  A
C1549      H1565   1.083       .  S
C1550      C1551   1.405       .  A
C1550      H1566   1.083       .  S
C1551      C1561   1.416       .  A
C1551      C1552   1.415       .  A
C1552      C1558   1.408       .  A
C1552      C1553   1.415       .  A
C1553      C1555   1.413       .  A
C1553      C1554   1.412       .  A
C1554      C1562   1.411       .  A
C1555      C1564   1.402       .  A
C1555      C1556   1.402       .  A
C1556      C1557   1.397       .  A
C1556      H1567   1.084       .  S
C1557      C1558   1.404       .  A
C1557      H1568   1.084       .  S
C1558      C1559   1.397       .  A
C1559      C1560   1.410       .  A
C1559      H1569   1.085       .  S
C1560      C1561   1.408       .  A
C1561      H1570   1.084       .  S
C1562      C1563   1.407       .  A
C1562      H1571   1.084       .  S
C1563      C1564   1.403       .  A
C1564      H1572   1.085       .  S
C1573      C1574   1.401       .  A
C1573      C1578   1.404       .  A
C1573      H1589   1.083       .  S
C1574      C1575   1.405       .  A
C1574      H1590   1.084       .  S
C1575      C1585   1.404       .  A
C1575      C1576   1.410   1_545  A
C1576      C1582   1.413       .  A
C1576      C1577   1.413       .  A
C1577      C1579   1.410       .  A
C1577      C1578   1.414   1_565  A
C1578      C1586   1.408       .  A
C1579      C1588   1.399       .  A
C1579      C1580   1.403       .  A
C1580      C1581   1.398       .  A
C1580      H1591   1.084       .  S
C1581      C1582   1.403       .  A
C1581      H1592   1.084       .  S
C1582      C1583   1.404       .  A
C1583      C1584   1.405   1_565  A
C1583      H1593   1.084       .  S
C1584      C1585   1.410       .  A
C1585      H1594   1.084       .  S
C1586      C1587   1.405   1_545  A
C1586      H1595   1.084       .  S
C1587      C1588   1.406       .  A
C1588      H1596   1.085       .  S
C1597      C1598   1.403       .  A
C1597      C1602   1.404       .  A
C1597      H1613   1.083       .  S
C1598      C1599   1.405   1_554  A
C1598      H1614   1.083       .  S
C1599      C1609   1.407       .  A
C1599      C1600   1.411       .  A
C1600      C1606   1.411       .  A
C1600      C1601   1.410   1_556  A
C1601      C1603   1.409       .  A
C1601      C1602   1.414       .  A
C1602      C1610   1.409       .  A
C1603      C1612   1.393       .  A
C1603      C1604   1.402       .  A
C1604      C1605   1.394   1_554  A
C1604      H1615   1.084       .  S
C1605      C1606   1.401       .  A
C1605      H1616   1.084       .  S
C1606      C1607   1.396       .  A
C1607      C1608   1.406       .  A
C1607      H1617   1.084       .  S
C1608      C1609   1.410       .  A
C1609      H1618   1.084       .  S
C1610      C1611   1.406       .  A
C1610      H1619   1.084   1_545  S
C1611      C1612   1.407       .  A
C1612      H1620   1.085       .  S
C1621      C1622   1.398       .  A
C1621      C1626   1.404       .  A
C1621      H1637   1.084       .  S
C1622      C1623   1.402       .  A
C1622      H1638   1.083       .  S
C1623      C1633   1.404       .  A
C1623      C1624   1.414       .  A
C1624      C1630   1.409       .  A
C1624      C1625   1.412       .  A
C1625      C1627   1.415       .  A
C1625      C1626   1.409       .  A
C1626      C1634   1.399       .  A
C1627      C1636   1.408       .  A
C1627      C1628   1.404       .  A
C1628      C1629   1.401       .  A
C1628      H1639   1.083       .  S
C1629      C1630   1.405       .  A
C1629      H1640   1.084       .  S
C1630      C1631   1.402       .  A
C1631      C1632   1.410       .  A
C1631      H1641   1.085       .  S
C1632      C1633   1.403       .  A
C1633      H1642   1.084       .  S
C1634      C1635   1.407       .  A
C1634      H1643   1.085       .  S
C1635      C1636   1.406       .  A
C1636      H1644   1.084       .  S
C1645      C1646   1.397       .  A
C1645      C1650   1.403       .  A
C1645      H1661   1.084       .  S
C1646      C1647   1.402       .  A
C1646      H1662   1.084       .  S
C1647      C1657   1.402       .  A
C1647      C1648   1.413       .  A
C1648      C1654   1.412   1_554  A
C1648      C1649   1.414   1_554  A
C1649      C1651   1.414       .  A
C1649      C1650   1.410   1_556  A
C1650      C1658   1.398   1_554  A
C1651      C1660   1.413       .  A
C1651      C1652   1.405       .  A
C1652      C1653   1.404       .  A
C1652      H1663   1.083       .  S
C1653      C1654   1.406       .  A
C1653      H1664   1.083       .  S
C1654      C1655   1.410       .  A
C1655      C1656   1.408   1_556  A
C1655      H1665   1.084       .  S
C1656      C1657   1.403       .  A
C1657      H1666   1.085       .  S
C1658      C1659   1.406       .  A
C1658      H1667   1.085   1_456  S
C1659      C1660   1.407       .  A
C1660      H1668   1.084       .  S
C1669      C1670   1.396       .  A
C1669      C1674   1.403       .  A
C1669      H1685   1.084       .  S
C1670      C1671   1.402       .  A
C1670      H1686   1.084       .  S
C1671      C1681   1.401       .  A
C1671      C1672   1.413       .  A
C1672      C1678   1.410       .  A
C1672      C1673   1.413       .  A
C1673      C1675   1.414       .  A
C1673      C1674   1.408       .  A
C1674      C1682   1.396       .  A
C1675      C1684   1.411       .  A
C1675      C1676   1.404       .  A
C1676      C1677   1.402       .  A
C1676      H1687   1.083       .  S
C1677      C1678   1.405       .  A
C1677      H1688   1.083       .  S
C1678      C1679   1.406       .  A
C1679      C1680   1.410       .  A
C1679      H1689   1.084       .  S
C1680      C1681   1.404       .  A
C1681      H1690   1.084       .  S
C1682      C1683   1.410       .  A
C1682      H1691   1.084       .  S
C1683      C1684   1.407       .  A
C1684      H1692   1.084       .  S
