geometry optimzed in LAMMPS
_audit_creation_date              2020-12-01 
_audit_creation_method            'lammps2cif' 
_symmetry_space_group_name_H-M    'P1' 
_symmetry_Int_Tables_number       1 
_symmetry_cell_setting            triclinic 
loop_ 
_symmetry_equiv_pos_as_xyz 
  x,y,z 
_cell_length_a                    30.71979686 
_cell_length_b                    61.69918796297712 
_cell_length_c                    44.92932787459766 
_cell_angle_alpha                 74.79619195911847 
_cell_angle_beta                  85.0972053216345 
_cell_angle_gamma                 119.40703711698163 
loop_ 
_atom_site_label 
_atom_site_type_symbol 
_atom_site_fract_x 
_atom_site_fract_y 
_atom_site_fract_z 
_atom_site_charge 
Zr1        Zr  0.98917801  0.02172927  0.36803937     2.17500
O2          O  0.91904112  0.50188206  0.41224371    -0.51900
O3          O  0.00655102  0.06589252  0.35700785    -0.75100
O4          O  0.01565196  0.03130726  0.41469245    -0.81900
O5          O  0.90930424  0.50788235  0.30966745    -0.83600
O6          O  0.09031553  0.03216483  0.41482283    -0.79300
O7          O  0.91002978  0.01654018  0.35591493    -0.90900
O8          O  0.07611314  0.09346181  0.31426956    -0.76900
O9          O  0.08099454  0.04959018  0.35157055    -0.86400
O10         O  0.01188347  0.04068083  0.31137337    -0.86100
O11         O  0.02027366  0.49331088  0.38804230    -0.72800
O12         O  0.95612345  0.48660770  0.34868287    -0.84900
Zr13       Zr  0.10250822  0.50194115  0.29616913     2.26400
Zr14       Zr  0.11183996  0.02107961  0.37010624     2.06300
Zr15       Zr  0.98395647  0.50607376  0.29191200     2.10000
Zr16       Zr  0.10334792  0.06790991  0.29503526     1.78800
O17         O  0.91379610  0.46522995  0.28862845    -0.93700
O18         O  0.18259999  0.10294774  0.30115383    -0.41600
O19         O  0.07189681  0.03191968  0.27560098    -0.78200
O20         O  0.13725723  0.04062893  0.31305051    -0.96900
O21         O  0.07736772  0.48293053  0.35282930    -0.90200
O22         O  0.01044609  0.47561917  0.31126089    -0.93000
C23         C  0.04016672  0.08877469  0.33643554     1.00700
C24         C  0.88717777  0.01050513  0.33408962     1.13700
C25         C  0.05375489  0.03435773  0.42671840     1.04400
O26         O  0.18992448  0.05925692  0.37237295    -0.95200
O27         O  0.18547435  0.01806249  0.35385258    -0.90900
O28         O  0.18535463  0.51186148  0.30654993    -0.84100
C29         C  0.20574413  0.51459519  0.33009305     1.11100
O30         O  0.91337869  0.43804552  0.41444590    -0.97200
Zr31       Zr  0.98536157  0.45750641  0.36818209     1.88900
O32         O  0.07443330  0.45557817  0.30808982    -0.73800
O33         O  0.11299898  0.48859660  0.41751721    -0.53100
O34         O  0.99570550  0.43173709  0.41519367    -0.97700
O35         O  0.90674225  0.42406629  0.35931789    -0.55000
O36         O  0.01067107  0.42981425  0.35394797    -0.74300
C37         C  0.04295515  0.43329935  0.33053468     0.98000
O38         O  0.17166199  0.00973005  0.25653606    -0.63100
O39         O  0.96570660  0.03076864  0.24851446    -0.57900
O40         O  0.09352088  0.50985473  0.24157817    -0.94600
O41         O  0.01604606  0.50582082  0.24126317    -0.93000
O42         O  0.08267442  0.08895957  0.24939938    -0.93400
O43         O  0.17359415  0.09296497  0.24666147    -0.92200
C44         C  0.05812803  0.50891497  0.22774681     1.16900
H45         H  0.99679794  0.05102771  0.30426568     0.32800
H46         H  0.17442223  0.05165084  0.30528791     0.43700
H47         H  0.99740265  0.46202973  0.30176111     0.37200
H48         H  0.00872236  0.48610726  0.41104665     0.33700
H49         H  0.18299870  0.11944807  0.29145488     0.25500
H50         H  0.13724155  0.49996802  0.42786854     0.31400
H51         H  0.03252039  0.43738434  0.40991705     0.37300
H52         H  0.07058220  0.07625664  0.23786666     0.31800
H53         H  0.93114552  0.01838845  0.24634453     0.30600
H54         H  0.88357877  0.45981518  0.30530430     0.32300
H55         H  0.90284182  0.40692059  0.37090032     0.31300
H56         H  0.17425589  0.07923185  0.23950307     0.35300
H57         H  0.15538184  0.99588278  0.24687048     0.28000
H58         H  0.92247665  0.51610156  0.42005043     0.32300
H59         H  0.89780397  0.41860238  0.42127503     0.35100
H60         H  0.96127859  0.04332734  0.25633172     0.27700
H61         H  0.18449394  0.02680117  0.23919986     0.40600
H62         H  0.21008709  0.06974874  0.34988276     0.30600
H63         H  0.17608310  0.09978655  0.32430921     0.38300
H64         H  0.91549706  0.42638010  0.33654244     0.30100
H65         H  0.07851473  0.47957356  0.43230416     0.30200
H66         H  0.92468604  0.49030934  0.42922291     0.30400
Zr67       Zr  0.99253067  0.27325139  0.37047463     2.17500
O68         O  0.91890498  0.25416583  0.41555598    -0.51900
O69         O  0.01321268  0.31834535  0.35573615    -0.75100
O70         O  0.01962337  0.28425021  0.41602472    -0.81900
O71         O  0.90208418  0.25265007  0.31753485    -0.83600
O72         O  0.09438727  0.28527080  0.41690588    -0.79300
O73         O  0.91235133  0.26665565  0.35981579    -0.90900
O74         O  0.07838162  0.34344511  0.31043764    -0.76900
O75         O  0.08405645  0.30094603  0.35173552    -0.86400
O76         O  0.01087018  0.28837493  0.31383355    -0.86100
O77         O  0.02339329  0.24545043  0.39344683    -0.72800
O78         O  0.95424659  0.23373345  0.35734640    -0.84900
Zr79       Zr  0.09819815  0.24866121  0.30312487     2.26400
Zr80       Zr  0.11548527  0.27321001  0.37291671     2.06300
Zr81       Zr  0.97528705  0.24915259  0.30037864     2.10000
Zr82       Zr  0.10230906  0.31526293  0.29520949     1.78800
O83         O  0.90341383  0.20573717  0.30476273    -0.93700
O84         O  0.18258522  0.35317720  0.29583769    -0.41600
O85         O  0.06745094  0.27658933  0.28090405    -0.78200
O86         O  0.13666971  0.28859442  0.31577317    -0.96900
O87         O  0.07945271  0.23377717  0.35978773    -0.90200
O88         O  0.00607715  0.22097780  0.32160771    -0.93000
C89         C  0.04555402  0.34038194  0.33327200     1.00700
C90         C  0.88761678  0.25954593  0.33918603     1.13700
C91         C  0.05760692  0.28751242  0.42822613     1.04400
O92         O  0.19150643  0.31492462  0.36941518    -0.95200
O93         O  0.18955160  0.27029479  0.35674022    -0.90900
O94         O  0.18212952  0.25924150  0.31236892    -0.84100
C95         C  0.20651520  0.26570202  0.33350385     1.11100
O96         O  0.92136252  0.18973174  0.42711553    -0.97200
Zr97       Zr  0.98781589  0.20691909  0.37852943     1.88900
O98         O  0.07051664  0.20246138  0.31733591    -0.73800
O99         O  0.12588766  0.24799853  0.42041537    -0.53100
O100        O  0.01388931  0.18779581  0.42268380    -0.97700
O101        O  0.90564398  0.16858930  0.38078007    -0.55000
O102        O  0.00866238  0.17765661  0.36413293    -0.74300
C103        C  0.03992472  0.18064314  0.34051224     0.98000
O104        O  0.16393121  0.25055951  0.26599646    -0.63100
O105        O  0.95561372  0.27032417  0.25420237    -0.57900
O106        O  0.08690632  0.25491697  0.24908897    -0.94600
O107        O  0.00682466  0.24770204  0.24987274    -0.93000
O108        O  0.07768909  0.33236067  0.24881435    -0.93400
O109        O  0.17080855  0.33618999  0.24662338    -0.92200
C110        C  0.05023614  0.25235536  0.23571492     1.16900
H111        H  0.99558469  0.29846190  0.30593284     0.32800
H112        H  0.17365722  0.29923579  0.30700446     0.43700
H113        H  0.99187828  0.20618273  0.31410088     0.37200
H114        H  0.01401033  0.23979738  0.41643476     0.33700
H115        H  0.18467621  0.36888854  0.28099654     0.25500
H116        H  0.15595329  0.26153263  0.42548966     0.31400
H117        H  0.02189449  0.19948136  0.43549288     0.37300
H118        H  0.09480426  0.35162456  0.24486431     0.31800
H119        H  0.91852190  0.25787076  0.25634572     0.30600
H120        H  0.87524652  0.20160997  0.32202643     0.32300
H121        H  0.90548651  0.15299710  0.39424650     0.31300
H122        H  0.17721121  0.32213897  0.24554901     0.35300
H123        H  0.14509700  0.23676477  0.25664916     0.28000
H124        H  0.92342110  0.26920597  0.42191043     0.32300
H125        H  0.91705993  0.17283643  0.44022240     0.35100
H126        H  0.95746744  0.28585350  0.25789966     0.27700
H127        H  0.17993685  0.26773309  0.24820941     0.40600
H128        H  0.20778221  0.32462792  0.34628481     0.30600
H129        H  0.17576849  0.35421001  0.31720466     0.38300
H130        H  0.90928146  0.16776336  0.35906770     0.30100
H131        H  0.09594718  0.24188494  0.43779759     0.30200
H132        H  0.92435309  0.24309614  0.43331808     0.30400
Zr133      Zr  0.49386684  0.02631380  0.36320799     2.17500
O134        O  0.41775284  0.50346238  0.40332652    -0.51900
O135        O  0.51584999  0.07152639  0.35352685    -0.75100
O136        O  0.51311840  0.02835816  0.41412589    -0.81900
O137        O  0.41597030  0.51447989  0.30024150    -0.83600
O138        O  0.58689649  0.02821919  0.41501070    -0.79300
O139        O  0.41458850  0.02060813  0.35050288    -0.90900
O140        O  0.58860680  0.09919173  0.31313055    -0.76900
O141        O  0.58575818  0.05123406  0.35152033    -0.86400
O142        O  0.52372136  0.04879499  0.30693415    -0.86100
O143        O  0.52144748  0.49560271  0.38089238    -0.72800
O144        O  0.46256025  0.49204777  0.33922237    -0.84900
Zr145      Zr  0.61140621  0.50970728  0.28846682     2.26400
Zr146      Zr  0.60900824  0.01910842  0.36884196     2.06300
Zr147      Zr  0.49283078  0.51403096  0.28272348     2.10000
Zr148      Zr  0.61554320  0.07318548  0.29530190     1.78800
O149        O  0.42118380  0.47587515  0.27549827    -0.93700
O150        O  0.68895742  0.10285975  0.31188164    -0.41600
O151        O  0.58278223  0.04017906  0.27085709    -0.78200
O152        O  0.64173801  0.04243689  0.31258824    -0.96900
O153        O  0.58217335  0.48744235  0.34469188    -0.90200
O154        O  0.51947854  0.48358211  0.30083364    -0.93000
C155        C  0.55134769  0.09464350  0.33408160     1.00700
C156        C  0.39524746  0.01832946  0.32647054     1.13700
C157        C  0.54945254  0.02961709  0.42713821     1.04400
O158        O  0.68911042  0.05241300  0.37629754    -0.95200
O159        O  0.68145825  0.01496296  0.35360356    -0.90900
O160        O  0.68555106  0.51059111  0.30404124    -0.84100
C161        C  0.70549121  0.51396130  0.32763085     1.11100
O162        O  0.41161348  0.43761689  0.40015487    -0.97200
Zr163      Zr  0.49046103  0.46209681  0.35720790     1.88900
O164        O  0.59191417  0.46522793  0.29722051    -0.73800
O165        O  0.60809788  0.48803879  0.41300931    -0.53100
O166        O  0.49863975  0.43666185  0.40563722    -0.97700
O167        O  0.41539136  0.42981981  0.34425508    -0.55000
O168        O  0.52081103  0.43729121  0.33914309    -0.74300
C169        C  0.55742810  0.44220416  0.31732912     0.98000
O170        O  0.68578208  0.03220364  0.24718019    -0.63100
O171        O  0.48902358  0.04769512  0.24072225    -0.57900
O172        O  0.59429034  0.50673271  0.23776732    -0.94600
O173        O  0.52698093  0.51242220  0.23300014    -0.93000
O174        O  0.61427909  0.10256225  0.24756847    -0.93400
O175        O  0.69351004  0.09729338  0.25188865    -0.92200
C176        C  0.56330657  0.50961467  0.22224513     1.16900
H177        H  0.51104176  0.06032809  0.29991925     0.32800
H178        H  0.67903275  0.05201087  0.30681976     0.43700
H179        H  0.50811106  0.47084034  0.29006538     0.37200
H180        H  0.50806283  0.48714976  0.40376781     0.33700
H181        H  0.70100824  0.12091129  0.29720602     0.25500
H182        H  0.61037419  0.47532312  0.40436306     0.31400
H183        H  0.52702835  0.43438043  0.39848935     0.37300
H184        H  0.57776715  0.09743008  0.25049984     0.31800
H185        H  0.52523319  0.05948156  0.22768626     0.30600
H186        H  0.41638550  0.48320707  0.25452226     0.32300
H187        H  0.41400281  0.41290719  0.35263849     0.31300
H188        H  0.70223549  0.08398279  0.25099654     0.35300
H189        H  0.68285396  0.01945828  0.23669291     0.28000
H190        H  0.41853628  0.51710160  0.41133937     0.32300
H191        H  0.40163640  0.41882121  0.40711979     0.35100
H192        H  0.47000100  0.03781459  0.22729305     0.27700
H193        H  0.68372306  0.04593031  0.23115124     0.40600
H194        H  0.68855432  0.06887334  0.36989812     0.30600
H195        H  0.67373017  0.10208194  0.33276065     0.38300
H196        H  0.42481729  0.43486775  0.32080175     0.30100
H197        H  0.64123860  0.49723203  0.41878095     0.30200
H198        H  0.42160429  0.49141937  0.42079014     0.30400
Zr199      Zr  0.50211823  0.28235258  0.35996393     2.17500
O200        O  0.42368576  0.26782159  0.39829079    -0.51900
O201        O  0.53064417  0.32874957  0.34557541    -0.75100
O202        O  0.52022505  0.28792689  0.41011510    -0.81900
O203        O  0.42093106  0.26660051  0.29968712    -0.83600
O204        O  0.59204712  0.28647979  0.41429078    -0.79300
O205        O  0.42462902  0.27701804  0.34454921    -0.90900
O206        O  0.60440211  0.35406879  0.30551242    -0.76900
O207        O  0.59389290  0.30629925  0.34825934    -0.86400
O208        O  0.53206819  0.30100027  0.30333597    -0.86100
O209        O  0.52186657  0.24975124  0.38440745    -0.72800
O210        O  0.46464698  0.24518580  0.34226552    -0.84900
Zr211      Zr  0.60946942  0.25606789  0.29609260     2.26400
Zr212      Zr  0.61452741  0.27400411  0.37112212     2.06300
Zr213      Zr  0.49611485  0.26398829  0.28549909     2.10000
Zr214      Zr  0.62399850  0.32418517  0.29176078     1.78800
O215        O  0.42691072  0.22349462  0.28097181    -0.93700
O216        O  0.70326614  0.35510217  0.30260911    -0.41600
O217        O  0.58824392  0.28799773  0.27286994    -0.78200
O218        O  0.64747979  0.29301232  0.31425299    -0.96900
O219        O  0.57946793  0.23742130  0.35264395    -0.90200
O220        O  0.51746553  0.23181272  0.30760398    -0.93000
C221        C  0.56807869  0.35106395  0.32563573     1.00700
C222        C  0.40259987  0.27127952  0.32229203     1.13700
C223        C  0.55561955  0.28947794  0.42435068     1.04400
O224        O  0.69446248  0.31056781  0.37440884    -0.95200
O225        O  0.68327349  0.26598833  0.36048679    -0.90900
O226        O  0.67994522  0.25544275  0.31560964    -0.84100
C227        C  0.69962548  0.25956395  0.33905341     1.11100
O228        O  0.41339388  0.19295349  0.40947958    -0.97200
Zr229      Zr  0.48792478  0.21376269  0.36437993     1.88900
O230        O  0.58231761  0.21015291  0.30870943    -0.73800
O231        O  0.60477559  0.24247590  0.42107878    -0.53100
O232        O  0.49523977  0.18771879  0.41263362    -0.97700
O233        O  0.40972520  0.18210525  0.35325737    -0.55000
O234        O  0.51177333  0.18494912  0.35073579    -0.74300
C235        C  0.54697031  0.18787364  0.32966559     0.98000
O236        O  0.68538079  0.27380620  0.25330011    -0.63100
O237        O  0.48799103  0.29083066  0.23833756    -0.57900
O238        O  0.59986845  0.25668324  0.24281312    -0.94600
O239        O  0.53756764  0.26598800  0.23562970    -0.93000
O240        O  0.61789603  0.34966785  0.24258926    -0.93400
O241        O  0.69813388  0.34400984  0.24691429    -0.92200
C242        C  0.57313018  0.26243173  0.22564026     1.16900
H243        H  0.52066172  0.31278249  0.29440413     0.32800
H244        H  0.68468547  0.30193720  0.30848140     0.43700
H245        H  0.50460015  0.21815887  0.29819376     0.37200
H246        H  0.50812198  0.24265073  0.40726967     0.33700
H247        H  0.71053985  0.37293615  0.29049999     0.25500
H248        H  0.59417849  0.22595150  0.41657198     0.31400
H249        H  0.47492272  0.16909732  0.41343484     0.37300
H250        H  0.59740583  0.33630822  0.23306681     0.31800
H251        H  0.45145128  0.28035603  0.23773953     0.30600
H252        H  0.40995216  0.22953529  0.26604008     0.32300
H253        H  0.42189778  0.17786660  0.33575999     0.31300
H254        H  0.69053413  0.32970184  0.23821647     0.35300
H255        H  0.71423723  0.28840213  0.25782715     0.28000
H256        H  0.43170853  0.28293370  0.40547957     0.32300
H257        H  0.39665803  0.17355702  0.41456967     0.35100
H258        H  0.49153143  0.30620112  0.24342029     0.27700
H259        H  0.69338761  0.25976300  0.25669137     0.40600
H260        H  0.72016055  0.31672131  0.35440716     0.30600
H261        H  0.69308005  0.35281437  0.32525655     0.38300
H262        H  0.39525164  0.19259079  0.34334980     0.30100
H263        H  0.64039787  0.24898177  0.42343184     0.30200
H264        H  0.41997246  0.25370128  0.41698033     0.30400
Zr265      Zr  0.06280305  0.06192827  0.02909627     2.17500
O266        O  0.03257567  0.07255215  0.07200090    -0.51900
O267        O  0.15252752  0.09709336  0.01881788    -0.75100
O268        O  0.07575066  0.04349520  0.07997334    -0.81900
O269        O  0.02658481  0.10278665  0.96924396    -0.83600
O270        O  0.06195204  0.00284920  0.08486504    -0.79300
O271        O  0.05442720  0.10005694  0.01454832    -0.90900
O272        O  0.19868294  0.09794160  0.97588670    -0.76900
O273        O  0.11053825  0.04330465  0.01639931    -0.86400
O274        O  0.09483262  0.08044886  0.97268543    -0.86100
O275        O  0.00096756  0.01490604  0.04870001    -0.72800
O276        O  0.98815929  0.04995923  0.00795936    -0.84900
Zr277      Zr  0.00999089  0.50202728  0.95701390     2.26400
Zr278      Zr  0.05237956  0.49759461  0.03383556     2.06300
Zr279      Zr  0.02111737  0.06758746  0.95128136     2.10000
Zr280      Zr  0.14164445  0.06153070  0.95992682     1.78800
O281        O  0.94294362  0.06626126  0.94218207    -0.93700
O282        O  0.21128321  0.05502913  0.97154485    -0.41600
O283        O  0.06838947  0.04854272  0.93802877    -0.78200
O284        O  0.08319289  0.01445359  0.97814759    -0.96900
O285        O  0.97768601  0.48369609  0.01326651    -0.90200
O286        O  0.96020494  0.02057464  0.96941794    -0.93000
C287        C  0.19459854  0.10702112  0.99785030     1.00700
C288        C  0.04091551  0.11117046  0.99217843     1.13700
C289        C  0.07057431  0.02141213  0.09582285     1.04400
O290        O  0.13183658  0.49932104  0.04018726    -0.95200
O291        O  0.04858578  0.46248640  0.01701425    -0.90900
O292        O  0.02375631  0.46514455  0.97078972    -0.84100
C293        C  0.03751092  0.45439211  0.99351157     1.11100
O294        O  0.89064293  0.01177056  0.06762670    -0.97200
Zr295      Zr  0.92848522  0.00290097  0.02593895     1.88900
O296        O  0.92059209  0.46621200  0.96769897    -0.73800
O297        O  0.99739377  0.45389137  0.07504891    -0.53100
O298        O  0.88645416  0.46286443  0.07439191    -0.97700
O299        O  0.86096817  0.01040381  0.01149390    -0.55000
O300        O  0.87390419  0.46449530  0.01105177    -0.74300
C301        C  0.87860051  0.45551409  0.98914005     0.98000
O302        O  0.03654676  0.48904674  0.91560492    -0.63100
O303        O  0.07551658  0.11032123  0.90806406    -0.57900
O304        O  0.00422285  0.02210276  0.90485966    -0.94600
O305        O  0.02192614  0.06341313  0.89906112    -0.93000
O306        O  0.18063851  0.10049773  0.91152595    -0.93400
O307        O  0.18106220  0.05395014  0.91762453    -0.92200
C308        C  0.01401716  0.04501111  0.88795393     1.16900
H309        H  0.11665238  0.09957982  0.96539936     0.32800
H310        H  0.10216064  0.00707249  0.97168820     0.43700
H311        H  0.93258818  0.01632793  0.95878998     0.37200
H312        H  0.98758763  0.00847116  0.07152026     0.33700
H313        H  0.24341417  0.07210336  0.95864421     0.25500
H314        H  0.01804320  0.45302846  0.09055703     0.31400
H315        H  0.84928362  0.45368641  0.07481336     0.37300
H316        H  0.15303830  0.09706279  0.90013650     0.31800
H317        H  0.05391771  0.11807637  0.90512661     0.30600
H318        H  0.95307540  0.08507857  0.93474014     0.32300
H319        H  0.85179820  0.50293050  0.99485910     0.31300
H320        H  0.15166521  0.04229289  0.91025582     0.35300
H321        H  0.00431853  0.98183621  0.90569358     0.28000
H322        H  0.06313369  0.08203890  0.08000062     0.32300
H323        H  0.85308399  0.99836597  0.07365955     0.35100
H324        H  0.10282028  0.12167582  0.91693827     0.27700
H325        H  0.06672093  0.50551664  0.89980332     0.40600
H326        H  0.14870919  0.00364016  0.02191756     0.30600
H327        H  0.21073100  0.05433658  0.99385020     0.38300
H328        H  0.87847382  0.02995774  0.00210403     0.30100
H329        H  0.96937210  0.45469546  0.08629248     0.30200
H330        H  0.00896471  0.05538394  0.08958634     0.30400
Zr331      Zr  0.06901152  0.31183688  0.03368899     2.17500
O332        O  0.03545274  0.32057274  0.07731473    -0.51900
O333        O  0.15859222  0.34740372  0.02413383    -0.75100
O334        O  0.07786904  0.29142384  0.08557005    -0.81900
O335        O  0.03679173  0.35396403  0.97269279    -0.83600
O336        O  0.06014670  0.25010923  0.09020783    -0.79300
O337        O  0.05910032  0.34990550  0.01975636    -0.90900
O338        O  0.20614158  0.34850749  0.98162019    -0.76900
O339        O  0.11651080  0.29276459  0.02173476    -0.86400
O340        O  0.10365618  0.33098191  0.97732059    -0.86100
O341        O  0.00639255  0.26484006  0.05142114    -0.72800
O342        O  0.99627052  0.30077515  0.01074898    -0.84900
Zr343      Zr  0.01844409  0.25380352  0.95902138     2.26400
Zr344      Zr  0.05434877  0.24598529  0.03813253     2.06300
Zr345      Zr  0.03155991  0.31921621  0.95441621     2.10000
Zr346      Zr  0.15076807  0.31186271  0.96541989     1.78800
O347        O  0.95161366  0.31681428  0.94789536    -0.93700
O348        O  0.21481168  0.30200369  0.98128754    -0.41600
O349        O  0.07986193  0.30069391  0.94137243    -0.78200
O350        O  0.09159182  0.26488806  0.98159161    -0.96900
O351        O  0.98242384  0.23459025  0.01503093    -0.90200
O352        O  0.97024539  0.27255019  0.97070961    -0.93000
C353        C  0.20103704  0.35776852  0.00318394     1.00700
C354        C  0.04734736  0.36152946  0.99660602     1.13700
C355        C  0.06944340  0.26853458  0.10161815     1.04400
O356        O  0.12929738  0.24421863  0.04850387    -0.95200
O357        O  0.04918716  0.21066686  0.02099344    -0.90900
O358        O  0.02781793  0.21577564  0.97358999    -0.84100
C359        C  0.03812020  0.20351424  0.99686922     1.11100
O360        O  0.89756405  0.26528049  0.06552383    -0.97200
Zr361      Zr  0.93582408  0.25392128  0.02705599     1.88900
O362        O  0.92881051  0.21891283  0.96799790    -0.73800
O363        O  0.99183844  0.20177821  0.07657528    -0.53100
O364        O  0.89302485  0.21659531  0.07742515    -0.97700
O365        O  0.86642980  0.25969217  0.01250548    -0.55000
O366        O  0.88187420  0.21592826  0.01247672    -0.74300
C367        C  0.88707276  0.20762114  0.98991481     0.98000
O368        O  0.04041093  0.24371122  0.91303450    -0.63100
O369        O  0.08428040  0.36207684  0.91132230    -0.57900
O370        O  0.02049179  0.27636665  0.90534375    -0.94600
O371        O  0.02976709  0.31584991  0.90199579    -0.93000
O372        O  0.19888795  0.35092069  0.91698543    -0.93400
O373        O  0.19215530  0.30610732  0.92200542    -0.92200
C374        C  0.02599696  0.29860664  0.88977351     1.16900
H375        H  0.12555713  0.35009865  0.97031226     0.32800
H376        H  0.11035488  0.25732643  0.97537605     0.43700
H377        H  0.94364140  0.26876508  0.95929729     0.37200
H378        H  0.99146563  0.25801227  0.07410111     0.33700
H379        H  0.24852600  0.31843783  0.96912546     0.25500
H380        H  0.01170957  0.19752875  0.09069580     0.31400
H381        H  0.85564815  0.20832564  0.07870552     0.37300
H382        H  0.17234958  0.35383436  0.90916745     0.31800
H383        H  0.06270073  0.36988628  0.90948315     0.30600
H384        H  0.93621208  0.31632443  0.96852595     0.32300
H385        H  0.83423120  0.24237435  0.02457343     0.31300
H386        H  0.16692981  0.30110341  0.90889971     0.35300
H387        H  0.07248772  0.24376579  0.91430282     0.28000
H388        H  0.06414205  0.32842024  0.08740211     0.32300
H389        H  0.86113818  0.25033807  0.07459166     0.35100
H390        H  0.11261163  0.37326984  0.91972678     0.27700
H391        H  0.01333112  0.22497880  0.91708110     0.40600
H392        H  0.14861410  0.25900693  0.05632967     0.30600
H393        H  0.21252222  0.30129418  0.00367038     0.38300
H394        H  0.86884296  0.26084008  0.98998956     0.30100
H395        H  0.96853008  0.20420925  0.09001654     0.30200
H396        H  0.00926996  0.30295204  0.09339364     0.30400
Zr397      Zr  0.57706525  0.06645791  0.02288617     2.17500
O398        O  0.55212033  0.07990197  0.06447113    -0.51900
O399        O  0.66750231  0.10199845  0.01036087    -0.75100
O400        O  0.58665218  0.04696868  0.07456254    -0.81900
O401        O  0.53141532  0.10375471  0.96558082    -0.83600
O402        O  0.57471214  0.00661444  0.07954079    -0.79300
O403        O  0.56092834  0.10226726  0.01027109    -0.90900
O404        O  0.71104450  0.10375915  0.96540664    -0.76900
O405        O  0.62370055  0.04708025  0.01062159    -0.86400
O406        O  0.60756759  0.08405927  0.96639817    -0.86100
O407        O  0.51537194  0.01933408  0.04334615    -0.72800
O408        O  0.50136947  0.05377818  0.00298067    -0.84900
Zr409      Zr  0.51587183  0.50452271  0.95373467     2.26400
Zr410      Zr  0.56230421  0.00010065  0.02937692     2.06300
Zr411      Zr  0.53236338  0.07046061  0.94641310     2.10000
Zr412      Zr  0.65355995  0.06444315  0.95409012     1.78800
O413        O  0.45229836  0.06661639  0.93724436    -0.93700
O414        O  0.72321963  0.05947821  0.96965625    -0.41600
O415        O  0.57882478  0.05094870  0.93360518    -0.78200
O416        O  0.59458811  0.01713945  0.97259792    -0.96900
O417        O  0.48793231  0.48672630  0.01021358    -0.90200
O418        O  0.47091153  0.02346556  0.96565277    -0.93000
C419        C  0.70809906  0.11276361  0.98763978     1.00700
C420        C  0.54378018  0.11193107  0.98887370     1.13700
C421        C  0.58243707  0.02513020  0.09037361     1.04400
O422        O  0.64739642  0.50401723  0.02769241    -0.95200
O423        O  0.55319758  0.46399620  0.01230949    -0.90900
O424        O  0.53162324  0.46843954  0.96509417    -0.84100
C425        C  0.54257604  0.45647588  0.98833696     1.11100
O426        O  0.40330468  0.01850500  0.06047526    -0.97200
Zr427      Zr  0.44130021  0.00679106  0.02234865     1.88900
O428        O  0.42609312  0.46777012  0.96830213    -0.73800
O429        O  0.51828720  0.45915695  0.07269323    -0.53100
O430        O  0.39921616  0.46572861  0.07281595    -0.97700
O431        O  0.36976100  0.01117569  0.00928221    -0.55000
O432        O  0.38246500  0.46680056  0.01240159    -0.74300
C433        C  0.38553780  0.45713164  0.99094516     0.98000
O434        O  0.52518460  0.49365842  0.90616354    -0.63100
O435        O  0.58418041  0.11375769  0.90380831    -0.57900
O436        O  0.51752809  0.02539490  0.90034912    -0.94600
O437        O  0.53429188  0.06676096  0.89422389    -0.93000
O438        O  0.68989942  0.09968362  0.90213331    -0.93400
O439        O  0.69509769  0.05473042  0.91533741    -0.92200
C440        C  0.52637401  0.04811954  0.88363452     1.16900
H441        H  0.62895187  0.10321583  0.95852298     0.32800
H442        H  0.61300239  0.00949406  0.96614231     0.43700
H443        H  0.44295298  0.01892881  0.95531435     0.37200
H444        H  0.50238111  0.01316788  0.06615614     0.33700
H445        H  0.75534690  0.07551064  0.95478401     0.25500
H446        H  0.54486278  0.45809610  0.08288264     0.31400
H447        H  0.41462661  0.45546247  0.06946725     0.37300
H448        H  0.72777247  0.10811394  0.89860315     0.31800
H449        H  0.56170772  0.12104085  0.90190622     0.30600
H450        H  0.46343737  0.08380631  0.92072746     0.32300
H451        H  0.36206971  0.50673649  0.99597061     0.31300
H452        H  0.67064909  0.04896328  0.90193536     0.35300
H453        H  0.55953173  0.99338362  0.90395674     0.28000
H454        H  0.58171201  0.08680444  0.07413704     0.32300
H455        H  0.36777196  0.00293408  0.07091671     0.35100
H456        H  0.61168312  0.12515318  0.91253464     0.27700
H457        H  0.49713899  0.47486424  0.91174353     0.40600
H458        H  0.65538563  0.00133423  0.01244145     0.30600
H459        H  0.72400658  0.06193032  0.99056362     0.38300
H460        H  0.37096148  0.01192989  0.98694706     0.30100
H461        H  0.49782225  0.46158190  0.08828756     0.30200
H462        H  0.52411900  0.06321709  0.08126635     0.30400
Zr463      Zr  0.56425335  0.31167741  0.02896516     2.17500
O464        O  0.53210515  0.31994143  0.07360921    -0.51900
O465        O  0.65366434  0.34753911  0.01734873    -0.75100
O466        O  0.58151974  0.29384833  0.07851291    -0.81900
O467        O  0.53039752  0.35280369  0.96835362    -0.83600
O468        O  0.56934680  0.25355468  0.08426629    -0.79300
O469        O  0.55516573  0.34979465  0.01464454    -0.90900
O470        O  0.69936182  0.34799885  0.97454582    -0.76900
O471        O  0.61100288  0.29243389  0.01693960    -0.86400
O472        O  0.59641959  0.32965218  0.97245582    -0.86100
O473        O  0.50231811  0.26470693  0.04932027    -0.72800
O474        O  0.48941177  0.29949913  0.00811719    -0.84900
Zr475      Zr  0.50850317  0.25035860  0.95870165     2.26400
Zr476      Zr  0.54948934  0.24559696  0.03580370     2.06300
Zr477      Zr  0.52236177  0.31671697  0.95149332     2.10000
Zr478      Zr  0.64269385  0.31010321  0.96060677     1.78800
O479        O  0.44469884  0.31656824  0.94392445    -0.93700
O480        O  0.70723457  0.30114871  0.97765132    -0.41600
O481        O  0.56933829  0.29742679  0.93879892    -0.78200
O482        O  0.58376401  0.26300299  0.97913121    -0.96900
O483        O  0.47526251  0.23257426  0.01486822    -0.90200
O484        O  0.46130678  0.26976695  0.97010919    -0.93000
C485        C  0.69547171  0.35751723  0.99610062     1.00700
C486        C  0.54257404  0.36102265  0.99170699     1.13700
C487        C  0.57966444  0.27264961  0.09445585     1.04400
O488        O  0.62347626  0.24273626  0.04569889    -0.95200
O489        O  0.54404790  0.20973833  0.02019634    -0.90900
O490        O  0.51897268  0.21244822  0.97397184    -0.84100
C491        C  0.53244403  0.20163875  0.99680628     1.11100
O492        O  0.38783847  0.26135032  0.06634804    -0.97200
Zr493      Zr  0.42954266  0.25240866  0.02662694     1.88900
O494        O  0.41920055  0.21438649  0.97109089    -0.73800
O495        O  0.48547594  0.20393917  0.07816589    -0.53100
O496        O  0.38986287  0.21608603  0.07786728    -0.97700
O497        O  0.36192620  0.25932079  0.01090240    -0.55000
O498        O  0.37326972  0.21364144  0.01402423    -0.74300
C499        C  0.37750790  0.20415697  0.99252461     0.98000
O500        O  0.53424536  0.24102439  0.91305236    -0.63100
O501        O  0.57571856  0.35823705  0.90632028    -0.57900
O502        O  0.50117994  0.26961396  0.90633610    -0.94600
O503        O  0.51794657  0.31084903  0.90034163    -0.93000
O504        O  0.68706641  0.34666511  0.90960007    -0.93400
O505        O  0.68344887  0.30207285  0.91941960    -0.92200
C506        C  0.50931598  0.29222351  0.88952212     1.16900
H507        H  0.61820992  0.34879581  0.96473280     0.32800
H508        H  0.60225300  0.25529262  0.97298718     0.43700
H509        H  0.43369033  0.26548451  0.95948020     0.37200
H510        H  0.48979154  0.25863306  0.07218859     0.33700
H511        H  0.74039848  0.31583406  0.96229673     0.25500
H512        H  0.50584219  0.19724427  0.08849577     0.31400
H513        H  0.35377274  0.20431176  0.07733205     0.37300
H514        H  0.66079122  0.34300498  0.89713430     0.31800
H515        H  0.55667027  0.36741245  0.90512397     0.30600
H516        H  0.45500643  0.32912168  0.92193720     0.32300
H517        H  0.35412237  0.25264028  0.99305206     0.31300
H518        H  0.65598623  0.29353291  0.90880758     0.35300
H519        H  0.56713614  0.24208549  0.91468730     0.28000
H520        H  0.56218403  0.32910306  0.08213260     0.32300
H521        H  0.35091754  0.24686415  0.07298034     0.35100
H522        H  0.60664318  0.36907225  0.91319461     0.27700
H523        H  0.50872080  0.22205906  0.91705790     0.40600
H524        H  0.64703669  0.25042762  0.02427675     0.30600
H525        H  0.70985337  0.30459662  0.99794415     0.38300
H526        H  0.37923295  0.27882658  0.00095939     0.30100
H527        H  0.47231221  0.20915737  0.09410816     0.30200
H528        H  0.50876620  0.30227640  0.09042128     0.30400
Zr529      Zr  0.99404454  0.05546330  0.61140401     2.17500
O530        O  0.96341151  0.07262516  0.56842209    -0.51900
O531        O  0.92215545  0.00983702  0.62566186    -0.75100
O532        O  0.01894951  0.05028770  0.56192079    -0.81900
O533        O  0.92602917  0.07049653  0.67018172    -0.83600
O534        O  0.09736951  0.05496180  0.55895584    -0.79300
O535        O  0.92397091  0.06187310  0.62415574    -0.90900
O536        O  0.92861586  0.98399100  0.66916118    -0.76900
O537        O  0.03379842  0.03066502  0.62499579    -0.86400
O538        O  0.96876565  0.03637676  0.66810325    -0.86100
O539        O  0.08518406  0.08742977  0.59023225    -0.72800
O540        O  0.02389451  0.09212194  0.63020805    -0.84900
Zr541      Zr  0.13030190  0.07932722  0.68148110     2.26400
Zr542      Zr  0.12479502  0.06260632  0.60596879     2.06300
Zr543      Zr  0.00029119  0.07271932  0.68695725     2.10000
Zr544      Zr  0.00864519  0.01172298  0.68154952     1.78800
O545        O  0.00728850  0.11300702  0.69037217    -0.93700
O546        O  0.01957859  0.97875529  0.66769154    -0.41600
O547        O  0.03924141  0.04754731  0.70150055    -0.78200
O548        O  0.10040969  0.04238995  0.66289051    -0.96900
O549        O  0.15599900  0.09890011  0.62491063    -0.90200
O550        O  0.09112730  0.10441345  0.66762295    -0.93000
C551        C  0.90517105  0.98752357  0.64784353     1.00700
C552        C  0.90597777  0.06665823  0.64679251     1.13700
C553        C  0.05803816  0.05091379  0.54790777     1.04400
O554        O  0.13190584  0.02595717  0.60136617    -0.95200
O555        O  0.20096580  0.06595122  0.62095208    -0.90900
O556        O  0.20196752  0.07381368  0.66757046    -0.84100
C557        C  0.22074503  0.06972359  0.64450359     1.11100
O558        O  0.08784684  0.14293196  0.56803704    -0.97200
Zr559      Zr  0.11516599  0.12294057  0.61070146     1.88900
O560        O  0.19684781  0.12579022  0.66913148    -0.73800
O561        O  0.19888377  0.09541828  0.56076739    -0.53100
O562        O  0.18266022  0.14618282  0.56107230    -0.97700
O563        O  0.10655636  0.15801035  0.62013444    -0.55000
O564        O  0.19302381  0.15099119  0.62395216    -0.74300
C565        C  0.21418786  0.14803201  0.64675150     0.98000
O566        O  0.16826714  0.07280870  0.72595008    -0.63100
O567        O  0.92456617  0.04387658  0.73227091    -0.56700
O568        O  0.09124133  0.07046445  0.73639647    -0.94600
O569        O  0.01796713  0.07129149  0.73843554    -0.93000
O570        O  0.94288857  0.98582684  0.73205795    -0.93400
O571        O  0.03493654  0.99023136  0.72327689    -0.92200
C572        C  0.05160054  0.06886528  0.75139333     1.16900
H573        H  0.93165787  0.02520859  0.67614703     0.32800
H574        H  0.11679438  0.03265947  0.66960329     0.43700
H575        H  0.10185596  0.11784643  0.67735017     0.37200
H576        H  0.09339561  0.09498622  0.56727234     0.33700
H577        H  0.99586382  0.46237655  0.68234675     0.25500
H578        H  0.20774438  0.08481826  0.55136101     0.31400
H579        H  0.21076705  0.14368544  0.56667690     0.37300
H580        H  0.93751682  0.49956350  0.73577711     0.31800
H581        H  0.91101812  0.05502257  0.73508771     0.30600
H582        H  0.98070125  0.10680530  0.70993871     0.32300
H583        H  0.13756407  0.17478732  0.60542098     0.31300
H584        H  0.05980822  0.00475265  0.72988835     0.35300
H585        H  0.17017985  0.05699507  0.72756691     0.28000
H586        H  0.94390736  0.05786856  0.56057641     0.32300
H587        H  0.11661174  0.16171747  0.55787962     0.35100
H588        H  0.89833970  0.03062927  0.72468085     0.27700
H589        H  0.20457038  0.08793743  0.71888987     0.40600
H590        H  0.11573023  0.01240094  0.62308314     0.30600
H591        H  0.01249331  0.97993645  0.64642327     0.38300
H592        H  0.11216818  0.15756224  0.64159612     0.30100
H593        H  0.18494748  0.10292326  0.54489368     0.30200
H594        H  0.99471997  0.08611750  0.55084860     0.30400
Zr595      Zr  0.98492622  0.30237479  0.61594214     2.17500
O596        O  0.95363862  0.32071977  0.57444362    -0.51900
O597        O  0.91659296  0.25684746  0.62636853    -0.75100
O598        O  0.01080440  0.29929979  0.56544243    -0.81900
O599        O  0.91779210  0.31690746  0.67677620    -0.83600
O600        O  0.08769900  0.30211277  0.56223958    -0.79300
O601        O  0.91336057  0.30738448  0.63131674    -0.90900
O602        O  0.92395464  0.22964025  0.66782327    -0.76900
O603        O  0.02482591  0.27752674  0.62818266    -0.86400
O604        O  0.95911880  0.28177310  0.67231199    -0.86100
O605        O  0.07607793  0.33428771  0.59487967    -0.72800
O606        O  0.01449172  0.33794870  0.63629653    -0.84900
Zr607      Zr  0.12151746  0.32434274  0.68598138     2.26400
Zr608      Zr  0.11587711  0.30926972  0.60924385     2.06300
Zr609      Zr  0.99102003  0.31721672  0.69281983     2.10000
Zr610      Zr  0.99930375  0.25725248  0.68455568     1.78800
O611        O  0.99926026  0.35714658  0.69852488    -0.93700
O612        O  0.01402891  0.22460948  0.67293817    -0.41600
O613        O  0.03062429  0.29213238  0.70628446    -0.78200
O614        O  0.09100304  0.28815698  0.66600820    -0.96900
O615        O  0.14661925  0.34477990  0.62949985    -0.90200
O616        O  0.08185341  0.34925941  0.67356087    -0.93000
C617        C  0.90100795  0.23388372  0.64649122     1.00700
C618        C  0.89663592  0.31276626  0.65386387     1.13700
C619        C  0.04897413  0.29946436  0.55114613     1.04400
O620        O  0.12101566  0.27232684  0.60366334    -0.95200
O621        O  0.19327183  0.31328652  0.62364740    -0.90900
O622        O  0.19378639  0.31985309  0.67114890    -0.84100
C623        C  0.21265990  0.31632597  0.64754935     1.11100
O624        O  0.07752368  0.39046308  0.57623467    -0.97200
Zr625      Zr  0.10551522  0.36886007  0.61677480     1.88900
O626        O  0.19035825  0.37040508  0.67330935    -0.73800
O627        O  0.18850191  0.34170823  0.56299174    -0.53100
O628        O  0.17085841  0.39336648  0.56603411    -0.97700
O629        O  0.09567869  0.40247031  0.62981329    -0.55000
O630        O  0.18620711  0.39541838  0.62805780    -0.74300
C631        C  0.20829542  0.39237977  0.65020780     0.98000
O632        O  0.16051846  0.31083347  0.72626097    -0.63100
O633        O  0.91420704  0.28713440  0.73722234    -0.57900
O634        O  0.08947089  0.32198897  0.73927507    -0.94600
O635        O  0.00838217  0.31431375  0.74434383    -0.93000
O636        O  0.92893118  0.23367788  0.73265149    -0.93400
O637        O  0.01835523  0.23319548  0.72829936    -0.92200
C638        C  0.04691722  0.31691713  0.75545035     1.16900
H639        H  0.92197750  0.27036417  0.67998956     0.32800
H640        H  0.10753616  0.27842138  0.67222525     0.43700
H641        H  0.09273408  0.36233976  0.68382858     0.37200
H642        H  0.08435921  0.34235625  0.57198718     0.33700
H643        H  0.98052828  0.20747979  0.68280857     0.25500
H644        H  0.19518753  0.33093467  0.55263072     0.31400
H645        H  0.19690811  0.38857792  0.56940123     0.37300
H646        H  0.93736806  0.24657129  0.74380242     0.31800
H647        H  0.89962699  0.29780240  0.74030954     0.30600
H648        H  0.96732779  0.35061544  0.71450329     0.32300
H649        H  0.12539337  0.41967667  0.61491080     0.31300
H650        H  0.05145910  0.24694658  0.73058111     0.35300
H651        H  0.17597660  0.32524747  0.73517010     0.28000
H652        H  0.93203850  0.30599924  0.56704169     0.32300
H653        H  0.10687572  0.40910811  0.56605531     0.35100
H654        H  0.88896838  0.27405620  0.72899743     0.27700
H655        H  0.13155016  0.29528447  0.74385735     0.40600
H656        H  0.11983001  0.26244247  0.62530848     0.30600
H657        H  0.01770972  0.22869232  0.64970043     0.38300
H658        H  0.10294458  0.40174504  0.65096332     0.30100
H659        H  0.17442292  0.34993677  0.54808179     0.30200
H660        H  0.98434578  0.33372066  0.55629616     0.30400
Zr661      Zr  0.48958533  0.05079389  0.61025691     2.17500
O662        O  0.46135137  0.06947212  0.56702232    -0.51900
O663        O  0.42185571  0.00486083  0.62124710    -0.75100
O664        O  0.51543643  0.04555794  0.56121672    -0.81900
O665        O  0.42109149  0.06573157  0.66899093    -0.83600
O666        O  0.59526375  0.05169046  0.55722197    -0.79300
O667        O  0.41637776  0.05498684  0.62422224    -0.90900
O668        O  0.43097156  0.97849811  0.66262531    -0.76900
O669        O  0.53121849  0.02693499  0.62262003    -0.86400
O670        O  0.46352831  0.03006511  0.66674948    -0.86100
O671        O  0.58052088  0.08377433  0.58988755    -0.72800
O672        O  0.51778741  0.08642513  0.63071145    -0.84900
Zr673      Zr  0.62467747  0.07344492  0.68119602     2.26400
Zr674      Zr  0.62175771  0.05954917  0.60423618     2.06300
Zr675      Zr  0.49298907  0.06549731  0.68720869     2.10000
Zr676      Zr  0.50561821  0.00637656  0.67889224     1.78800
O677        O  0.49810192  0.10451583  0.69402007    -0.93700
O678        O  0.52790271  0.97753603  0.66282317    -0.41600
O679        O  0.53364344  0.04097142  0.70089733    -0.78200
O680        O  0.59677761  0.03761605  0.66093850    -0.96900
O681        O  0.65121799  0.09481315  0.62493293    -0.90200
O682        O  0.58377413  0.09775080  0.66892228    -0.93000
C683        C  0.40758036  0.98205104  0.64140714     1.00700
C684        C  0.39990821  0.06095398  0.64617149     1.13700
C685        C  0.55524372  0.04702875  0.54676413     1.04400
O686        O  0.63263837  0.02494119  0.59562732    -0.95200
O687        O  0.69723150  0.06217396  0.61924994    -0.90900
O688        O  0.69597411  0.06797066  0.66693294    -0.84100
C689        C  0.71579335  0.06472166  0.64341616     1.11100
O690        O  0.58040222  0.14085564  0.57343360    -0.97200
Zr691      Zr  0.60886627  0.11826466  0.61238239     1.88900
O692        O  0.69360265  0.11937981  0.66885143    -0.73800
O693        O  0.69587810  0.09550386  0.56078581    -0.53100
O694        O  0.67233490  0.14333656  0.56089237    -0.97700
O695        O  0.59633918  0.15039998  0.62754835    -0.55000
O696        O  0.68849185  0.14581132  0.62527684    -0.74300
C697        C  0.71089774  0.14191298  0.64708934     0.98000
O698        O  0.65893384  0.06292486  0.72620491    -0.63100
O699        O  0.41523538  0.03464291  0.73077885    -0.57900
O700        O  0.59144058  0.06982433  0.73440193    -0.94600
O701        O  0.51244177  0.06474170  0.73813430    -0.93000
O702        O  0.43437651  0.97684140  0.72650596    -0.93400
O703        O  0.52588775  0.98371734  0.72331210    -0.92200
C704        C  0.55027931  0.06660169  0.74973517     1.16900
H705        H  0.42643010  0.01833246  0.67431552     0.32800
H706        H  0.61335262  0.02790315  0.66714202     0.43700
H707        H  0.59383545  0.11057870  0.67954071     0.37200
H708        H  0.58883234  0.09177205  0.56697524     0.33700
H709        H  0.49530721  0.45696722  0.68169238     0.25500
H710        H  0.70905983  0.08658431  0.55090777     0.31400
H711        H  0.70305290  0.14284317  0.56497381     0.37300
H712        H  0.44199047  0.48972573  0.74135955     0.31800
H713        H  0.40184422  0.04554102  0.73492963     0.30600
H714        H  0.46212600  0.10028479  0.69785829     0.32300
H715        H  0.60953848  0.15168567  0.64675349     0.31300
H716        H  0.54732320  0.99764576  0.73186569     0.35300
H717        H  0.65871798  0.04671663  0.72678144     0.28000
H718        H  0.44052919  0.05478767  0.55935604     0.32300
H719        H  0.60782896  0.15995916  0.56599593     0.35100
H720        H  0.38972693  0.02272009  0.72149516     0.27700
H721        H  0.69591414  0.07726839  0.72008928     0.40600
H722        H  0.59817658  0.01125176  0.59482495     0.30600
H723        H  0.51996095  0.97808094  0.64184078     0.38300
H724        H  0.55843897  0.14138488  0.63537136     0.30100
H725        H  0.68111516  0.10223416  0.54478720     0.30200
H726        H  0.49300079  0.08230355  0.54944694     0.30400
Zr727      Zr  0.49354962  0.30982430  0.60957655     2.17500
O728        O  0.46687970  0.32916830  0.56590505    -0.51900
O729        O  0.42143389  0.26484554  0.62084635    -0.75100
O730        O  0.52046191  0.30587835  0.55956566    -0.81900
O731        O  0.42278687  0.32251884  0.67014903    -0.83600
O732        O  0.59854602  0.31006693  0.55637551    -0.79300
O733        O  0.42220354  0.31526170  0.62303931    -0.90900
O734        O  0.42798061  0.23748840  0.66249607    -0.76900
O735        O  0.53113526  0.28394481  0.62277515    -0.86400
O736        O  0.46568616  0.28900334  0.66610133    -0.86100
O737        O  0.58510205  0.34122430  0.59033370    -0.72800
O738        O  0.52331532  0.34522825  0.63060907    -0.84900
Zr739      Zr  0.62534524  0.32872863  0.68307683     2.26400
Zr740      Zr  0.62251380  0.31510265  0.60530580     2.06300
Zr741      Zr  0.49671622  0.32405007  0.68720933     2.10000
Zr742      Zr  0.50374847  0.26343610  0.67916689     1.78800
O743        O  0.50467750  0.36451432  0.69070293    -0.93700
O744        O  0.52028737  0.23209717  0.66521435    -0.41600
O745        O  0.53384721  0.29786608  0.70130909    -0.78200
O746        O  0.59553029  0.29310428  0.66215001    -0.96900
O747        O  0.65354910  0.35001780  0.62673123    -0.90200
O748        O  0.58821722  0.35494001  0.67002434    -0.93000
C749        C  0.40506158  0.24188470  0.64132768     1.00700
C750        C  0.40376641  0.31942793  0.64615373     1.13700
C751        C  0.55985136  0.30702607  0.54499030     1.04400
O752        O  0.62577300  0.27847553  0.59689778    -0.95200
O753        O  0.69551676  0.31526369  0.62216211    -0.90900
O754        O  0.69320680  0.32052974  0.67020048    -0.84100
C755        C  0.71276754  0.31688700  0.64700083     1.11100
O756        O  0.59045756  0.39883126  0.57243363    -0.97200
Zr757      Zr  0.61506698  0.37534404  0.61324968     1.88900
O758        O  0.69526887  0.37438029  0.67212274    -0.73800
O759        O  0.69953411  0.34986366  0.56294063    -0.53100
O760        O  0.68293163  0.39831426  0.56383532    -0.97700
O761        O  0.60878964  0.41031410  0.62498681    -0.55000
O762        O  0.69370560  0.40130088  0.62742883    -0.74300
C763        C  0.71439933  0.39698068  0.64999495     0.98000
O764        O  0.66273618  0.32084656  0.72745739    -0.63100
O765        O  0.41986755  0.29519758  0.73178571    -0.57900
O766        O  0.58437468  0.31843055  0.73812821    -0.94600
O767        O  0.51191862  0.32002415  0.73967073    -0.93000
O768        O  0.43166130  0.23610824  0.72657444    -0.93400
O769        O  0.52000264  0.23900265  0.72419992    -0.92200
C770        C  0.54454475  0.31675662  0.75297894     1.16900
H771        H  0.42847285  0.27792091  0.67343308     0.32800
H772        H  0.61026698  0.28251394  0.66878080     0.43700
H773        H  0.59895798  0.36775558  0.68068140     0.37200
H774        H  0.59442050  0.34957169  0.56743024     0.33700
H775        H  0.49146852  0.21438098  0.67971447     0.25500
H776        H  0.71070850  0.34023498  0.55306895     0.31400
H777        H  0.70341669  0.41702813  0.56264924     0.37300
H778        H  0.43208682  0.24884868  0.73629778     0.31800
H779        H  0.40399846  0.30568562  0.73282445     0.30600
H780        H  0.50021677  0.36199619  0.71368597     0.32300
H781        H  0.64208912  0.42695226  0.61264794     0.31300
H782        H  0.53979196  0.25222002  0.73406197     0.35300
H783        H  0.65993685  0.30370808  0.73021337     0.28000
H784        H  0.44608266  0.31467667  0.55794823     0.32300
H785        H  0.62133149  0.41701057  0.56206877     0.35100
H786        H  0.39557875  0.28090717  0.72464699     0.27700
H787        H  0.70021498  0.33438723  0.71976546     0.40600
H788        H  0.61517632  0.26548980  0.61861649     0.30600
H789        H  0.51349963  0.23301117  0.64390914     0.38300
H790        H  0.61011892  0.40770162  0.64750004     0.30100
H791        H  0.68690034  0.35789971  0.54665341     0.30200
H792        H  0.49877782  0.34206906  0.54853178     0.30400
C793        C  0.84880294  0.18626694  0.65190681    -0.20900
C794        C  0.85266899  0.21076213  0.64550806    -0.07500
C795        C  0.80947993  0.21236888  0.63974425     0.13400
C796        C  0.76402443  0.18959127  0.64040425    -0.20900
C797        C  0.76001003  0.16508395  0.64706147    -0.07500
C798        C  0.80319061  0.16345909  0.65266887     0.13400
C799        C  0.80213648  0.13801069  0.65855245    -0.24300
H800        H  0.88180697  0.18499166  0.65621989     0.14700
H801        H  0.73094610  0.19082308  0.63617984     0.14700
C802        C  0.80993923  0.23766945  0.63418270    -0.24200
H803        H  0.84039517  0.14086829  0.66006195     0.04900
H804        H  0.79127916  0.13048026  0.63875264     0.08200
H805        H  0.77397875  0.12295443  0.68149142     0.08200
H806        H  0.83812272  0.25302255  0.61137033     0.08100
H807        H  0.82021105  0.24493884  0.65423294     0.08100
H808        H  0.77159981  0.23466376  0.63261002     0.04900
C809        C  0.32232179  0.46283686  0.63106802    -0.20900
C810        C  0.35779554  0.45808704  0.64442410    -0.07500
C811        C  0.34391537  0.43145385  0.65932938     0.13400
C812        C  0.29468520  0.41063416  0.66104537    -0.20900
C813        C  0.25888721  0.41548993  0.64825668    -0.07500
C814        C  0.27319330  0.44209242  0.63283219     0.13400
C815        C  0.23691704  0.44917306  0.61891867    -0.24300
H816        H  0.33270017  0.48307368  0.61954418     0.14700
H817        H  0.28431282  0.39031048  0.67217585     0.14700
C818        C  0.38061444  0.42446333  0.67277870    -0.24200
H819        H  0.25404178  0.47094006  0.60956040     0.04900
H820        H  0.20089530  0.44015577  0.63762218     0.08200
H821        H  0.22810438  0.44231367  0.59847686     0.08200
H822        H  0.38839352  0.43049739  0.69387651     0.08100
H823        H  0.41726614  0.43440598  0.65421120     0.08100
H824        H  0.36438924  0.40274409  0.68080364     0.04900
C825        C  0.79161992  0.32824661  0.66658712    -0.20900
C826        C  0.75863146  0.31481236  0.64921258    -0.07500
C827        C  0.77003277  0.29967079  0.63493889     0.13400
C828        C  0.81541116  0.29977326  0.63679989    -0.20900
C829        C  0.84922956  0.31375106  0.65343970    -0.07500
C830        C  0.83651706  0.32791969  0.66906248     0.13400
C831        C  0.86993651  0.34325382  0.68788976    -0.24300
H832        H  0.78236423  0.33927641  0.67827232     0.14700
H833        H  0.82419251  0.28850585  0.62531876     0.14700
C834        C  0.73378942  0.28232528  0.61892276    -0.24200
H835        H  0.85492536  0.35407419  0.69690013     0.04900
H836        H  0.90968585  0.35817958  0.67257462     0.08200
H837        H  0.87079812  0.32943623  0.70902315     0.08200
H838        H  0.73150122  0.29471396  0.59700017     0.08100
H839        H  0.69486107  0.26841413  0.63568379     0.08100
H840        H  0.74701469  0.27020461  0.61168095     0.04900
C841        C  0.31543626  0.30396338  0.67371221    -0.20900
C842        C  0.35604297  0.31969143  0.64589397    -0.07500
C843        C  0.34894883  0.33402067  0.61854908     0.13400
C844        C  0.30116168  0.33186319  0.61973421    -0.20900
C845        C  0.26059630  0.31619555  0.64759090    -0.07500
C846        C  0.26749804  0.30157134  0.67478755     0.13400
C847        C  0.22475155  0.28212002  0.70471386    -0.24300
H848        H  0.32047989  0.29256230  0.69448761     0.14700
H849        H  0.29604903  0.34318345  0.59892809     0.14700
C850        C  0.39115719  0.35259648  0.58817397    -0.24200
H851        H  0.21996882  0.26233764  0.70997824     0.04900
H852        H  0.18675255  0.27924283  0.70278062     0.08200
H853        H  0.23497344  0.28893391  0.72506772     0.08200
H854        H  0.38028103  0.34477965  0.56859001     0.08100
H855        H  0.42923600  0.35563132  0.59019686     0.08100
H856        H  0.39608721  0.37246373  0.58168007     0.04900
C857        C  0.85239116  0.44069485  0.65466043    -0.20900
C858        C  0.85852672  0.46580195  0.64493105    -0.07500
C859        C  0.81637376  0.46791482  0.63791540     0.13400
C860        C  0.76985367  0.44500375  0.64028949    -0.20900
C861        C  0.76372165  0.41990917  0.65000143    -0.07500
C862        C  0.80564276  0.41774070  0.65734623     0.13400
C863        C  0.80222122  0.39156049  0.66706869    -0.24300
H864        H  0.88457286  0.43902535  0.66009506     0.14700
H865        H  0.73768929  0.44665942  0.63476911     0.14700
C866        C  0.81552288  0.99210016  0.63273127    -0.24200
H867        H  0.83969216  0.39390875  0.66994180     0.04900
H868        H  0.79096251  0.38237980  0.64859532     0.08200
H869        H  0.77343719  0.37813454  0.69031093     0.08200
H870        H  0.84398754  0.00578379  0.60939453     0.08100
H871        H  0.82668137  0.00119295  0.65128931     0.08100
H872        H  0.78119194  0.49131858  0.62686365     0.04900
C873        C  0.32621590  0.19797874  0.67131859    -0.20900
C874        C  0.35556887  0.21870491  0.64185896    -0.07500
C875        C  0.33750607  0.21627269  0.61427237     0.13400
C876        C  0.29131565  0.19303563  0.61694521    -0.20900
C877        C  0.26239967  0.17200892  0.64634238    -0.07500
C878        C  0.28028455  0.17467482  0.67400187     0.13400
C879        C  0.25159291  0.15342984  0.70657686    -0.24300
H880        H  0.33948535  0.19996059  0.69261083     0.14700
H881        H  0.27818408  0.19116423  0.59559737     0.14700
C882        C  0.36715017  0.23748846  0.58175516    -0.24200
H883        H  0.26982663  0.15986889  0.72549575     0.04900
H884        H  0.25189505  0.13546309  0.70698009     0.08200
H885        H  0.21124677  0.14852008  0.71266839     0.08200
H886        H  0.40685928  0.24151677  0.57592080     0.08100
H887        H  0.36883281  0.25596301  0.58127569     0.08100
H888        H  0.34863353  0.23141268  0.56275798     0.04900
C889        C  0.82604129  0.05360514  0.62823237    -0.20900
C890        C  0.85793848  0.06689348  0.64616357    -0.07500
C891        C  0.84231144  0.07925536  0.66335278     0.13400
C892        C  0.79537776  0.07758233  0.66229390    -0.20900
C893        C  0.76371114  0.06444304  0.64420467    -0.07500
C894        C  0.77894349  0.05177481  0.62739634     0.13400
C895        C  0.74535708  0.03531731  0.60955635    -0.24300
H896        H  0.83767827  0.04421783  0.61491359     0.14700
H897        H  0.78348496  0.08682481  0.67570457     0.14700
C898        C  0.87488637  0.09494396  0.68220539    -0.24200
H899        H  0.76184382  0.02519129  0.60024566     0.04900
H900        H  0.74179948  0.04814201  0.58870032     0.08200
H901        H  0.70661275  0.01970325  0.62577870     0.08200
H902        H  0.91398056  0.11080208  0.66661905     0.08100
H903        H  0.87774922  0.08161315  0.70284931     0.08100
H904        H  0.85790775  0.10469745  0.69196212     0.04900
C905        C  0.35338041  0.08344351  0.65326120    -0.20900
C906        C  0.35389514  0.06302704  0.64514913    -0.07500
C907        C  0.31007010  0.04474586  0.63740934     0.13400
C908        C  0.26760232  0.04767972  0.63735637    -0.20900
C909        C  0.26708560  0.06805117  0.64542653    -0.07500
C910        C  0.31058890  0.08620385  0.65353727     0.13400
C911        C  0.31293789  0.10894897  0.66154159    -0.24300
H912        H  0.38691542  0.09747070  0.65922621     0.14700
H913        H  0.23397953  0.03361351  0.63148486     0.14700
C914        C  0.30657400  0.02138689  0.63059809    -0.24200
H915        H  0.35110007  0.12206652  0.66535156     0.04900
H916        H  0.28327860  0.10120964  0.68382912     0.08200
H917        H  0.30628928  0.12119489  0.64175526     0.08200
H918        H  0.31302037  0.00944082  0.65085965     0.08100
H919        H  0.33570292  0.02834514  0.60833338     0.08100
H920        H  0.26797709  0.00820266  0.62738633     0.04900
C921        C  0.51910035  0.32383231  0.80171095    -0.20900
C922        C  0.53433882  0.30989376  0.78792936    -0.07500
C923        C  0.53584200  0.28850703  0.80788864     0.13400
C924        C  0.52540915  0.28277433  0.84086873    -0.20900
C925        C  0.51306447  0.29764308  0.85480089    -0.07500
C926        C  0.50835537  0.31804706  0.83484662     0.13400
C927        C  0.49101056  0.33349002  0.84791856    -0.24300
H928        H  0.51623128  0.33962053  0.78633368     0.14700
H929        H  0.52822845  0.26681864  0.85574983     0.14700
C930        C  0.54645396  0.27092887  0.79485495    -0.24200
H931        H  0.48517575  0.34680711  0.82899639     0.04900
H932        H  0.52063117  0.34624219  0.85833209     0.08200
H933        H  0.45367256  0.31956730  0.86627639     0.08200
H934        H  0.58628729  0.28247981  0.77941902     0.08100
H935        H  0.51824750  0.26238156  0.78100393     0.08100
H936        H  0.54285441  0.25417036  0.81415404     0.04900
C937        C  0.53519131  0.41398518  0.01754504    -0.20900
C938        C  0.54247012  0.43217346  0.98817292    -0.07500
C939        C  0.55001182  0.42666719  0.96003823     0.13400
C940        C  0.54986102  0.40346594  0.96222963    -0.20900
C941        C  0.54267467  0.38533699  0.99161139    -0.07500
C942        C  0.53532665  0.39087362  0.01972448     0.13400
C943        C  0.52654136  0.37250192  0.05238299    -0.24300
H944        H  0.52899108  0.41776910  0.03926446     0.14700
H945        H  0.55590775  0.39958811  0.94055625     0.14700
C946        C  0.55912662  0.44507290  0.92739130    -0.24200
H947        H  0.51827245  0.37922255  0.07157704     0.04900
H948        H  0.56177593  0.37195192  0.05428106     0.08200
H949        H  0.49292540  0.35228724  0.05676244     0.08200
H950        H  0.59245563  0.46533004  0.92318011     0.08100
H951        H  0.52368750  0.44531568  0.92544569     0.08100
H952        H  0.56791902  0.43848589  0.90819247     0.04900
C953        C  0.57740511  0.15344203  0.00108182    -0.20900
C954        C  0.53914064  0.13439026  0.99112581    -0.07500
C955        C  0.49761462  0.13714316  0.98407824     0.13400
C956        C  0.49654834  0.15924780  0.98617933    -0.20900
C957        C  0.53516414  0.17842581  0.99582129    -0.07500
C958        C  0.57604377  0.17534253  0.00354029     0.13400
C959        C  0.61949095  0.19547448  0.01329792    -0.24300
H960        H  0.60917010  0.15138128  0.00656293     0.14700
H961        H  0.46491791  0.16141423  0.98062968     0.14700
C962        C  0.45324190  0.11643349  0.97555494    -0.24200
H963        H  0.64983380  0.19080858  0.01623140     0.04900
H964        H  0.60445593  0.19562735  0.03653095     0.08200
H965        H  0.63793746  0.21551735  0.99480252     0.08200
H966        H  0.43567718  0.09668232  0.99452793     0.08100
H967        H  0.46694983  0.11568685  0.95241962     0.08100
H968        H  0.42252846  0.12088742  0.97312747     0.04900
C969        C  0.57562532  0.07594336  0.82788779    -0.20900
C970        C  0.53022338  0.05355722  0.84945874    -0.07500
C971        C  0.49086989  0.03621051  0.83810571     0.13400
C972        C  0.49817113  0.04157567  0.80523333    -0.20900
C973        C  0.54441880  0.06332905  0.78367692    -0.07500
C974        C  0.58358643  0.08088743  0.79501293     0.13400
C975        C  0.63319352  0.10500443  0.77264449    -0.24300
H976        H  0.60561995  0.08912738  0.83691605     0.14700
H977        H  0.46820508  0.02825109  0.79632177     0.14700
C978        C  0.44099101  0.01227546  0.86047565    -0.24200
H979        H  0.65827254  0.11715249  0.78561827     0.04900
H980        H  0.62442824  0.11769571  0.75498452     0.08200
H981        H  0.65536252  0.09886903  0.75998485     0.08200
H982        H  0.41691559  0.52200027  0.87480620     0.08100
H983        H  0.44040300  0.49991910  0.87777891     0.08100
H984        H  0.40751777  0.50409618  0.84775109     0.04900
C985        C  0.82624072  0.18302527  0.96099378    -0.20900
C986        C  0.84187058  0.18312581  0.98940163    -0.07500
C987        C  0.81449303  0.15975293  0.01677573     0.13400
C988        C  0.77086004  0.13719792  0.01542100    -0.20900
C989        C  0.75467674  0.13716218  0.98721603    -0.07500
C990        C  0.78283212  0.16032425  0.95953530     0.13400
C991        C  0.76630700  0.16157783  0.92879680    -0.24300
H992        H  0.84761138  0.20094019  0.94002544     0.14700
H993        H  0.74958609  0.11929617  0.03641501     0.14700
C994        C  0.83218054  0.15809970  0.04712395    -0.24200
H995        H  0.79119820  0.18164832  0.91020695     0.04900
H996        H  0.72589763  0.15676419  0.93301172     0.08200
H997        H  0.76907662  0.14729545  0.91931973     0.08200
H998        H  0.82884563  0.17172498  0.05766349     0.08100
H999        H  0.87294657  0.16350212  0.04204599     0.08100
H1000       H  0.80842943  0.13775062  0.06523540     0.04900
C1001       C  0.29632766  0.38696231  0.99169955    -0.20900
C1002       C  0.24740729  0.38260290  0.00259634    -0.07500
C1003       C  0.24438356  0.40306312  0.00939777     0.13400
C1004       C  0.29016100  0.42723794  0.00470468    -0.20900
C1005       C  0.33899173  0.43172582  0.99328160    -0.07500
C1006       C  0.34206827  0.41113306  0.98700995     0.13400
C1007       C  0.39319061  0.41403993  0.97630338    -0.24300
H1008       H  0.29880222  0.37130603  0.98662708     0.14700
H1009       H  0.28779208  0.44292266  0.00977248     0.14700
C1010       C  0.19335752  0.40011754  0.02051515    -0.24200
H1011       H  0.38806156  0.39535880  0.97447251     0.04900
H1012       H  0.41664306  0.41926488  0.99369132     0.08200
H1013       H  0.41454581  0.42968172  0.95237896     0.08200
H1014       H  0.17180977  0.38402145  0.04412888     0.08100
H1015       H  0.17005702  0.39553361  0.00291109     0.08100
H1016       H  0.19861059  0.41858138  0.02321516     0.04900
C1017       C  0.07066966  0.33367252  0.79962671    -0.20900
C1018       C  0.04043909  0.31249135  0.78968604    -0.07500
C1019       C  0.00365712  0.28723311  0.81253789     0.13400
C1020       C  0.99880733  0.28358326  0.84500702    -0.20900
C1021       C  0.02929678  0.30465220  0.85523626    -0.07500
C1022       C  0.06514669  0.33020349  0.83218491     0.13400
C1023       C  0.09871913  0.35374043  0.84149846    -0.24300
H1024       H  0.09841114  0.35302177  0.78180495     0.14700
H1025       H  0.97130623  0.26405268  0.86256496     0.14700
C1026       C  0.97066031  0.26386556  0.80273831    -0.24200
H1027       H  0.12633379  0.37164178  0.82035902     0.04900
H1028       H  0.12148332  0.34919729  0.85711340     0.08200
H1029       H  0.07414314  0.35871693  0.85409079     0.08200
H1030       H  0.99571118  0.26042665  0.78781961     0.08100
H1031       H  0.94542946  0.26778592  0.78896731     0.08100
H1032       H  0.94536105  0.24536834  0.82370553     0.04900
C1033       C  0.77744206  0.39997701  0.96542745    -0.20900
C1034       C  0.74215081  0.38229514  0.99520222    -0.07500
C1035       C  0.75249115  0.38879091  0.02280994     0.13400
C1036       C  0.79723650  0.41280651  0.01969522    -0.20900
C1037       C  0.83245014  0.43056013  0.98990702    -0.07500
C1038       C  0.82247872  0.42389392  0.96236047     0.13400
C1039       C  0.85809588  0.44191592  0.92954860    -0.24300
H1040       H  0.76951802  0.39516622  0.94419171     0.14700
H1041       H  0.80510029  0.41757296  0.04096370     0.14700
C1042       C  0.71785349  0.37035191  0.05579295    -0.24200
H1043       H  0.84232716  0.43411314  0.91075086     0.04900
H1044       H  0.89597127  0.44364985  0.92825911     0.08200
H1045       H  0.86358925  0.46185770  0.92405021     0.08200
H1046       H  0.71285853  0.35055996  0.06060680     0.08100
H1047       H  0.67966698  0.36831760  0.05797216     0.08100
H1048       H  0.73425734  0.37793658  0.07458518     0.04900
C1049       C  0.27488791  0.15022782  0.96779124    -0.20900
C1050       C  0.24137704  0.13139374  0.99757570    -0.07500
C1051       C  0.25338055  0.13645031  0.02567860     0.13400
C1052       C  0.29801653  0.16039793  0.02308830    -0.20900
C1053       C  0.33132367  0.17931760  0.99325014    -0.07500
C1054       C  0.31966484  0.17403657  0.96518421     0.13400
C1055       C  0.35303227  0.19358728  0.93232417    -0.24300
H1056       H  0.26558302  0.14644981  0.94622325     0.14700
H1057       H  0.30734084  0.16423521  0.04462520     0.14700
C1058       C  0.22058595  0.11647104  0.05843915    -0.24200
H1059       H  0.33586085  0.18682676  0.91326763     0.04900
H1060       H  0.39149823  0.19591978  0.92880373     0.08200
H1061       H  0.35757698  0.21310537  0.92925061     0.08200
H1062       H  0.21642926  0.09712379  0.06082511     0.08100
H1063       H  0.18189462  0.11384707  0.06247486     0.08100
H1064       H  0.23807926  0.12297013  0.07754155     0.04900
C1065       C  0.05189836  0.40322689  0.96734778    -0.20900
C1066       C  0.04615686  0.38550169  0.99669523    -0.07500
C1067       C  0.03820500  0.39093988  0.02477274     0.13400
C1068       C  0.03565019  0.41342361  0.02262366    -0.20900
C1069       C  0.04057061  0.43091684  0.99332868    -0.07500
C1070       C  0.04928174  0.42567523  0.96520628     0.13400
C1071       C  0.05675278  0.44360158  0.93261504    -0.24300
H1072       H  0.05862441  0.39954596  0.94562696     0.14700
H1073       H  0.02900480  0.41714441  0.04432524     0.14700
C1074       C  0.03092988  0.37301110  0.05734731    -0.24200
H1075       H  0.06702269  0.43746075  0.91336271     0.04900
H1076       H  0.08861140  0.46425070  0.92833481     0.08200
H1077       H  0.02014271  0.44265379  0.93080717     0.08200
H1078       H  0.06677869  0.37298723  0.05878955     0.08100
H1079       H  0.99777308  0.35259000  0.06208701     0.08100
H1080       H  0.02264758  0.37972861  0.07654054     0.04900
C1081       C  0.07865515  0.17689135  0.00319269    -0.20900
C1082       C  0.03808008  0.17978204  0.99544538    -0.07500
C1083       C  0.99837905  0.15999211  0.98665791     0.13400
C1084       C  0.00092394  0.13813676  0.98529042    -0.20900
C1085       C  0.04136564  0.13513609  0.99320610    -0.07500
C1086       C  0.08087147  0.15486126  0.00228067     0.13400
C1087       C  0.12627583  0.15332338  0.01025057    -0.24300
H1088       H  0.10907357  0.19211641  0.00980330     0.14700
H1089       H  0.97040150  0.12292310  0.97872709     0.14700
C1090       C  0.95196800  0.16108218  0.98015878    -0.24200
H1091       H  0.15520845  0.17146153  0.01431427     0.04900
H1092       H  0.14593376  0.15118554  0.99029766     0.08200
H1093       H  0.11310428  0.13622739  0.03244366     0.08200
H1094       H  0.96381737  0.17839369  0.95857358     0.08100
H1095       H  0.93282620  0.16259713  0.00094043     0.08100
H1096       H  0.92303827  0.14301259  0.97597454     0.04900
C1097       C  0.03358759  0.03613297  0.83939004    -0.20900
C1098       C  0.02021635  0.05085390  0.85300265    -0.07500
C1099       C  0.01573687  0.07117043  0.83270734     0.13400
C1100       C  0.02685595  0.07677573  0.79960974    -0.20900
C1101       C  0.04247873  0.06278575  0.78619186    -0.07500
C1102       C  0.04450385  0.04170207  0.80644456     0.13400
C1103       C  0.05612313  0.02425327  0.79373852    -0.24300
H1104       H  0.03646600  0.02031313  0.85450655     0.14700
H1105       H  0.02368422  0.09235406  0.78399516     0.14700
C1106       C  0.99806158  0.08662312  0.84545907    -0.24200
H1107       H  0.05225141  0.00752960  0.81324025     0.04900
H1108       H  0.09631447  0.03596465  0.77876954     0.08200
H1109       H  0.02878758  0.01565193  0.77943349     0.08200
H1110       H  0.02742430  0.09937195  0.85601704     0.08100
H1111       H  0.96054863  0.07272167  0.86367559     0.08100
H1112       H  0.99248604  0.09991455  0.82633570     0.04900
C1113       C  0.60226694  0.31290171  0.45925580    -0.20900
C1114       C  0.55503267  0.29513075  0.45446251    -0.07500
C1115       C  0.50935243  0.28217562  0.47911782     0.13400
C1116       C  0.51236632  0.28690511  0.50799227    -0.20900
C1117       C  0.55978044  0.30404868  0.51320876    -0.07500
C1118       C  0.60534458  0.31764227  0.48814706     0.13400
C1119       C  0.65721635  0.33762886  0.49113690    -0.24300
H1120       H  0.63717201  0.32307777  0.44022032     0.14700
H1121       H  0.47739593  0.27661504  0.52696670     0.14700
C1122       C  0.45748477  0.26259440  0.47580357    -0.24200
H1123       H  0.68751141  0.34765316  0.46838485     0.04900
H1124       H  0.66985599  0.32759126  0.50935120     0.08200
H1125       H  0.65471185  0.35317629  0.49775085     0.08200
H1126       H  0.45924244  0.24683596  0.46926735     0.08100
H1127       H  0.44612301  0.27314318  0.45731439     0.08100
H1128       H  0.42683192  0.25282333  0.49833385     0.04900
C1129       C  0.57337817  0.24422040  0.18269895    -0.20900
C1130       C  0.58443662  0.26608736  0.19163110    -0.07500
C1131       C  0.60166251  0.29075633  0.16807662     0.13400
C1132       C  0.60417502  0.29257570  0.13624414    -0.20900
C1133       C  0.58747734  0.27006332  0.12729455    -0.07500
C1134       C  0.57388001  0.24565052  0.15088142     0.13400
C1135       C  0.55730813  0.22060330  0.14363776    -0.24300
H1136       H  0.56098727  0.22548667  0.20107355     0.14700
H1137       H  0.61665685  0.31159882  0.11852329     0.14700
C1138       C  0.61636258  0.31515905  0.17651665    -0.24200
H1139       H  0.54909652  0.20386751  0.16500698     0.04900
H1140       H  0.58844915  0.22393789  0.12509370     0.08200
H1141       H  0.52128947  0.21438080  0.13553997     0.08200
H1142       H  0.64726457  0.31915298  0.18934013     0.08100
H1143       H  0.58222775  0.31217203  0.19187450     0.08100
H1144       H  0.63090091  0.33302677  0.15497964     0.04900
C1145       C  0.50933563  0.02189893  0.51331172    -0.20900
C1146       C  0.55468503  0.04281237  0.51600767    -0.07500
C1147       C  0.59811776  0.05925597  0.48936171     0.13400
C1148       C  0.59481103  0.05440422  0.46067532    -0.20900
C1149       C  0.54938491  0.03366536  0.45792171    -0.07500
C1150       C  0.50619955  0.01700411  0.48459702     0.13400
C1151       C  0.45739542  0.99366455  0.48326775    -0.24300
H1152       H  0.47638491  0.00915462  0.53391241     0.14700
H1153       H  0.62781727  0.06702797  0.44009074     0.14700
C1154       C  0.64752622  0.08240623  0.49054657    -0.24200
H1155       H  0.42920601  0.98163117  0.50700847     0.04900
H1156       H  0.46642297  0.98054410  0.47495041     0.08200
H1157       H  0.43870847  0.00088585  0.46685447     0.08200
H1158       H  0.66597728  0.07511710  0.50718633     0.08100
H1159       H  0.63920506  0.09592268  0.49838223     0.08100
H1160       H  0.68550884  0.58244601  0.47197789     0.04900
C1161       C  0.60749944  0.42112675  0.31837494    -0.20900
C1162       C  0.56085778  0.41961589  0.31642313    -0.07500
C1163       C  0.51708373  0.39561518  0.31765298     0.13400
C1164       C  0.52060268  0.37337795  0.32200356    -0.20900
C1165       C  0.56699390  0.37471970  0.32426072    -0.07500
C1166       C  0.61106699  0.39882116  0.32269558     0.13400
C1167       C  0.66135350  0.40147808  0.32715061    -0.24300
H1168       H  0.64066522  0.43948556  0.31808056     0.14700
H1169       H  0.48717022  0.35499964  0.32256811     0.14700
C1170       C  0.46669058  0.39291031  0.31337794    -0.24200
H1171       H  0.67174197  0.40899042  0.34701912     0.04900
H1172       H  0.69247117  0.41584685  0.30499662     0.08200
H1173       H  0.65951036  0.38241649  0.33331029     0.08200
H1174       H  0.46883816  0.41206430  0.30674954     0.08100
H1175       H  0.43585100  0.37882163  0.33574046     0.08100
H1176       H  0.45577090  0.38504900  0.29382767     0.04900
C1177       C  0.56656539  0.13844244  0.30471224    -0.20900
C1178       C  0.54857630  0.11784604  0.33414088    -0.07500
C1179       C  0.52905214  0.12015314  0.36202640     0.13400
C1180       C  0.52881953  0.14321253  0.35962862    -0.20900
C1181       C  0.54737224  0.16394000  0.33017437    -0.07500
C1182       C  0.56609603  0.16136049  0.30223039     0.13400
C1183       C  0.58416071  0.18206330  0.26948596    -0.24300
H1184       H  0.58068730  0.13647643  0.28323323     0.14700
H1185       H  0.51468338  0.14521411  0.38106567     0.14700
C1186       C  0.50986476  0.09895030  0.39443610    -0.24200
H1187       H  0.59309223  0.17542896  0.25038112     0.04900
H1188       H  0.62009196  0.20063934  0.26763865     0.08200
H1189       H  0.55349501  0.18613068  0.26477980     0.08200
H1190       H  0.54053592  0.09503169  0.39967598     0.08100
H1191       H  0.47488489  0.08039757  0.39520311     0.08100
H1192       H  0.49910210  0.10497390  0.41366206     0.04900
C1193       C  0.61118258  0.03402210  0.16797984    -0.20900
C1194       C  0.57219471  0.51149903  0.18886506    -0.07500
C1195       C  0.53612481  0.49210160  0.17818213     0.13400
C1196       C  0.54425597  0.49653048  0.14541183    -0.20900
C1197       C  0.58108777  0.01987889  0.12437169    -0.07500
C1198       C  0.61894173  0.03853106  0.13520822     0.13400
C1199       C  0.66760822  0.06297352  0.11240228    -0.24300
H1200       H  0.63950241  0.04850141  0.17652309     0.14700
H1201       H  0.51568204  0.48213660  0.13689451     0.14700
C1202       C  0.48905468  0.46697009  0.20127883    -0.24200
H1203       H  0.69395421  0.07473761  0.12519683     0.04900
H1204       H  0.65818035  0.07605057  0.09604139     0.08200
H1205       H  0.68854054  0.05705296  0.09826454     0.08200
H1206       H  0.46441915  0.47185412  0.21401136     0.08100
H1207       H  0.50112101  0.45607320  0.21892601     0.08100
H1208       H  0.46543839  0.45362438  0.18893279     0.04900
C1209       C  0.09758141  0.31157151  0.49666584    -0.20900
C1210       C  0.04963046  0.29718105  0.51925890    -0.07500
C1211       C  0.00430635  0.28071558  0.51107273     0.13400
C1212       C  0.00846705  0.27875403  0.48076167    -0.20900
C1213       C  0.05657937  0.29246779  0.45856156    -0.07500
C1214       C  0.10170209  0.30949595  0.46638380     0.13400
C1215       C  0.15398909  0.32604520  0.44283193    -0.24300
H1216       H  0.13217907  0.32455769  0.50277197     0.14700
H1217       H  0.97389946  0.26567390  0.47471619     0.14700
C1218       C  0.95176349  0.26417048  0.53441210    -0.24200
H1219       H  0.18406757  0.33965048  0.45232826     0.04900
H1220       H  0.15226778  0.33834975  0.42051878     0.08200
H1221       H  0.16635332  0.31305802  0.43744505     0.08200
H1222       H  0.94002455  0.27723038  0.54026297     0.08100
H1223       H  0.95268257  0.25125877  0.55651328     0.08100
H1224       H  0.92155811  0.25112834  0.52447515     0.04900
C1225       C  0.79772074  0.23920191  0.33355764    -0.20900
C1226       C  0.83909783  0.25931361  0.34044787    -0.07500
C1227       C  0.83356182  0.27896157  0.34782798     0.13400
C1228       C  0.78698328  0.27794679  0.34792116    -0.20900
C1229       C  0.74596861  0.25809617  0.34057123    -0.07500
C1230       C  0.75114371  0.23826446  0.33357446     0.13400
C1231       C  0.70746826  0.21566011  0.32699419    -0.24300
H1232       H  0.80180169  0.22403141  0.32825992     0.14700
H1233       H  0.78302733  0.29324257  0.35294351     0.14700
C1234       C  0.87701718  0.30175097  0.35430853    -0.24200
H1235       H  0.71727510  0.20106770  0.32427559     0.04900
H1236       H  0.69883342  0.22325489  0.30451274     0.08200
H1237       H  0.67240880  0.20499330  0.34707257     0.08200
H1238       H  0.91204876  0.31259549  0.33416610     0.08100
H1239       H  0.88578307  0.29425141  0.37679145     0.08100
H1240       H  0.86686405  0.31621340  0.35708036     0.04900
C1241       C  0.26601914  0.25254797  0.31519980    -0.20900
C1242       C  0.25732456  0.26773855  0.33061083    -0.07500
C1243       C  0.29758871  0.28471212  0.34206937     0.13400
C1244       C  0.34437439  0.28563261  0.33824885    -0.20900
C1245       C  0.35282809  0.27017686  0.32330730    -0.07500
C1246       C  0.31290945  0.25346430  0.31140303     0.13400
C1247       C  0.31836513  0.23591816  0.29548474    -0.24300
H1248       H  0.23556664  0.23954016  0.30630720     0.14700
H1249       H  0.37487855  0.29870696  0.34707659     0.14700
C1250       C  0.29268928  0.30257697  0.35762188    -0.24200
H1251       H  0.28225275  0.22320410  0.28932545     0.04900
H1252       H  0.32750913  0.22260583  0.31172058     0.08200
H1253       H  0.34937901  0.24831521  0.27294868     0.08200
H1254       H  0.26245011  0.29049585  0.38051439     0.08100
H1255       H  0.28297611  0.31558192  0.34135126     0.08100
H1256       H  0.32923504  0.31563902  0.36311793     0.04900
C1257       C  0.02120061  0.23627272  0.19191738    -0.20900
C1258       C  0.05886268  0.25571395  0.20152842    -0.07500
C1259       C  0.10209787  0.27867205  0.17822647     0.13400
C1260       C  0.10546551  0.28199539  0.14576612    -0.20900
C1261       C  0.06741906  0.26265320  0.13607272    -0.07500
C1262       C  0.02518457  0.23923027  0.15957676     0.13400
C1263       C  0.98293134  0.21770365  0.15085177    -0.24300
H1264       H  0.98820912  0.21872108  0.20989782     0.14700
H1265       H  0.13760520  0.29996690  0.12779396     0.14700
C1266       C  0.14345961  0.30029400  0.18732617    -0.24200
H1267       H  0.95168353  0.20159567  0.17218195     0.04900
H1268       H  0.99913709  0.20860325  0.13907432     0.08200
H1269       H  0.96537884  0.22611049  0.13466490     0.08200
H1270       H  0.16342463  0.29246070  0.20184701     0.08100
H1271       H  0.12589705  0.30779327  0.20120054     0.08100
H1272       H  0.17311416  0.31733131  0.16602636     0.04900
C1273       C  0.03507494  0.05675916  0.49584505    -0.20900
C1274       C  0.05816856  0.04704553  0.51668694    -0.07500
C1275       C  0.08082922  0.03388417  0.50726270     0.13400
C1276       C  0.07875145  0.03035723  0.47778295    -0.20900
C1277       C  0.05513140  0.03971262  0.45706995    -0.07500
C1278       C  0.03360020  0.05350159  0.46605559     0.13400
C1279       C  0.02131719  0.56900444  0.44141045    -0.24300
H1280       H  0.01854683  0.06725246  0.50277360     0.14700
H1281       H  0.09520971  0.01976808  0.47106859     0.14700
C1282       C  0.10593103  0.02263599  0.52834609    -0.24200
H1283       H  0.01369026  0.58227384  0.45040324     0.04900
H1284       H  0.98519051  0.55501738  0.43643281     0.08200
H1285       H  0.05252445  0.58155280  0.41893995     0.08200
H1286       H  0.07834851  0.00888020  0.55197630     0.08100
H1287       H  0.14131818  0.03894807  0.53126911     0.08100
H1288       H  0.11789408  0.01130708  0.51799278     0.04900
C1289       C  0.04782408  0.38087809  0.30415653    -0.20900
C1290       C  0.04460379  0.36393178  0.33321859    -0.07500
C1291       C  0.04150216  0.37005126  0.36120223     0.13400
C1292       C  0.04135571  0.39299257  0.35931413    -0.20900
C1293       C  0.04445606  0.40993082  0.33026105    -0.07500
C1294       C  0.04755714  0.40380678  0.30230171     0.13400
C1295       C  0.04865067  0.42069647  0.27080043    -0.24300
H1296       H  0.04987108  0.37592303  0.28285016     0.14700
H1297       H  0.03931038  0.39791570  0.38064972     0.14700
C1298       C  0.04016945  0.35311720  0.39281551    -0.24200
H1299       H  0.04771313  0.41189161  0.25205730     0.04900
H1300       H  0.08458290  0.44068834  0.26241081     0.08200
H1301       H  0.01452103  0.42259057  0.27345746     0.08200
H1302       H  0.07417381  0.35110845  0.39029719     0.08100
H1303       H  0.00411974  0.33315845  0.40125585     0.08100
H1304       H  0.04114649  0.36195625  0.41152926     0.04900
C1305       C  0.99323293  0.13369001  0.34522109    -0.20900
C1306       C  0.04049902  0.15726137  0.33979230    -0.07500
C1307       C  0.08724112  0.15803205  0.33422426     0.13400
C1308       C  0.08554120  0.13518095  0.33345653    -0.20900
C1309       C  0.03839390  0.11163533  0.33849632    -0.07500
C1310       C  0.99147058  0.11073271  0.34459150     0.13400
C1311       C  0.93976531  0.08610949  0.34933917    -0.24300
H1312       H  0.95763625  0.13340033  0.34952004     0.14700
H1313       H  0.12128192  0.13560083  0.32920114     0.14700
C1314       C  0.13876093  0.18250784  0.33020093    -0.24200
H1315       H  0.90781162  0.08971967  0.35173988     0.04900
H1316       H  0.93128590  0.06994666  0.37146326     0.08200
H1317       H  0.93991221  0.07955060  0.32857118     0.08200
H1318       H  0.13777787  0.18876576  0.35115444     0.08100
H1319       H  0.14787794  0.19889330  0.30817862     0.08100
H1320       H  0.17071910  0.17887492  0.32813829     0.04900
C1321       C  0.76080305  0.50364119  0.35786715    -0.20900
C1322       C  0.75312717  0.51337738  0.32813435    -0.07500
C1323       C  0.78674180  0.02108435  0.30213209     0.13400
C1324       C  0.83134160  0.02047546  0.30445131    -0.20900
C1325       C  0.83881505  0.01032807  0.33401548    -0.07500
C1326       C  0.80590535  0.50353718  0.36035661     0.13400
C1327       C  0.81188493  0.49322520  0.39305899    -0.24300
H1328       H  0.73134027  0.49617086  0.37941600     0.14700
H1329       H  0.86116837  0.02841335  0.28290267     0.14700
C1330       C  0.78287164  0.03347459  0.26959806    -0.24200
H1331       H  0.77667601  0.48507028  0.41205381     0.04900
H1332       H  0.84424502  0.50970096  0.39789450     0.08200
H1333       H  0.81926844  0.47710852  0.39463315     0.08200
H1334       H  0.77600512  0.04955962  0.26952775     0.08100
H1335       H  0.75110439  0.01803382  0.26307701     0.08100
H1336       H  0.81882065  0.04233971  0.25086247     0.04900
C1337       C  0.25913607  0.49886541  0.35375380    -0.20900
C1338       C  0.25520513  0.51589682  0.32811577    -0.07500
C1339       C  0.29857785  0.03549953  0.30107883     0.13400
C1340       C  0.34378369  0.03504422  0.30145035    -0.20900
C1341       C  0.34722845  0.51582818  0.32617429    -0.07500
C1342       C  0.30449313  0.49853899  0.35312680     0.13400
C1343       C  0.30581420  0.47924965  0.38103635    -0.24300
H1344       H  0.22622497  0.48551761  0.37428988     0.14700
H1345       H  0.37761732  0.04865193  0.28153786     0.14700
C1346       C  0.29842591  0.05540534  0.27327001    -0.24200
H1347       H  0.26731742  0.46537625  0.39830371     0.04900
H1348       H  0.33267094  0.49032507  0.39392799     0.08200
H1349       H  0.31820478  0.46724155  0.37268420     0.08200
H1350       H  0.28844213  0.06810082  0.28190664     0.08100
H1351       H  0.26989848  0.04499686  0.26060718     0.08100
H1352       H  0.33679825  0.06855360  0.25576326     0.04900
C1353       C  0.02468040  0.49266222  0.18536041    -0.20900
C1354       C  0.06549300  0.51146224  0.19397226    -0.07500
C1355       C  0.10300409  0.03499213  0.17067449     0.13400
C1356       C  0.10636107  0.03742938  0.13849667    -0.20900
C1357       C  0.07077912  0.01647844  0.12974377    -0.07500
C1358       C  0.03137826  0.99239489  0.15381550     0.13400
C1359       C  0.99103539  0.96942781  0.14612020    -0.24300
H1360       H  0.99080958  0.47615980  0.20382352     0.14700
H1361       H  0.13597968  0.05599053  0.12005728     0.14700
C1362       C  0.14037781  0.05829811  0.17915138    -0.24200
H1363       H  0.94782567  0.46045490  0.16721513     0.04900
H1364       H  0.00973057  0.96136882  0.13426499     0.08200
H1365       H  0.96442172  0.48569123  0.12973975     0.08200
H1366       H  0.16299466  0.05281764  0.19394352     0.08100
H1367       H  0.13846146  0.56348846  0.19140684     0.08100
H1368       H  0.16804507  0.07572701  0.15756479     0.04900
Zr1369     Zr  0.99342293  0.52340487  0.36686125     2.17500
O1370       O  0.91542121  0.99735032  0.41444505    -0.51900
O1371       O  0.01406207  0.56821967  0.35540660    -0.75100
O1372       O  0.01818523  0.53166797  0.41413951    -0.81900
O1373       O  0.90417066  0.00537284  0.31140588    -0.83600
O1374       O  0.08974647  0.52969441  0.41659040    -0.79300
O1375       O  0.91485049  0.51869616  0.35437270    -0.90900
O1376       O  0.08539626  0.59530709  0.31385718    -0.76900
O1377       O  0.08540625  0.54965267  0.35202972    -0.86400
O1378       O  0.01845670  0.54267806  0.31022991    -0.86100
O1379       O  0.01958851  0.99315690  0.38821130    -0.72800
O1380       O  0.95394901  0.98494766  0.34968952    -0.84900
Zr1381     Zr  0.10190331  0.00313083  0.29563854     2.26400
Zr1382     Zr  0.11278952  0.51962697  0.37112241     2.06300
Zr1383     Zr  0.97948862  0.00419666  0.29289067     2.10000
Zr1384     Zr  0.11019438  0.56839685  0.29554329     1.78800
O1385       O  0.90923160  0.96285030  0.29078752    -0.93700
O1386       O  0.18885141  0.60146818  0.30466936    -0.41600
O1387       O  0.07646468  0.53251365  0.27561320    -0.78200
O1388       O  0.13981918  0.53921503  0.31409427    -0.96900
O1389       O  0.07842460  0.98414817  0.35223463    -0.90200
O1390       O  0.00988284  0.97535024  0.31150464    -0.93000
C1391       C  0.04910778  0.59108087  0.33541036     1.00700
C1392       C  0.89223929  0.51292464  0.33239739     1.13700
C1393       C  0.05414433  0.53297452  0.42746038     1.04400
O1394       O  0.19155931  0.55781626  0.37275782    -0.95200
O1395       O  0.18568674  0.51576341  0.35544747    -0.90900
O1396       O  0.18571308  0.01411760  0.30498388    -0.84100
C1397       C  0.20580430  0.01689640  0.32862023     1.11100
O1398       O  0.90893658  0.93598899  0.41149411    -0.97200
Zr1399     Zr  0.98649120  0.95725685  0.36842580     1.88900
O1400       O  0.07795028  0.95741634  0.30782019    -0.73800
O1401       O  0.11362655  0.99116755  0.41705706    -0.53100
O1402       O  0.99938182  0.93567473  0.41763486    -0.97700
O1403       O  0.91274240  0.92084527  0.35962296    -0.55000
O1404       O  0.01688494  0.93113394  0.35478657    -0.74300
C1405       C  0.04886455  0.93516467  0.33074425     0.98000
O1406       O  0.16979429  0.50519663  0.25871228    -0.63100
O1407       O  0.97273866  0.53361850  0.24718780    -0.57900
O1408       O  0.09048376  0.00963234  0.24179661    -0.94600
O1409       O  0.01183072  0.00428985  0.24190725    -0.93000
O1410       O  0.09858760  0.59363542  0.24876116    -0.93400
O1411       O  0.18362265  0.59078852  0.24942151    -0.92200
C1412       C  0.05457912  0.00810023  0.22822644     1.16900
H1413       H  0.00472593  0.55363472  0.30273651     0.32800
H1414       H  0.17704030  0.54970317  0.30670449     0.43700
H1415       H  0.99766595  0.96172015  0.30205846     0.37200
H1416       H  0.00883379  0.98604639  0.41123748     0.33700
H1417       H  0.19124074  0.61852191  0.29497109     0.25500
H1418       H  0.13624338  0.00293357  0.42768067     0.31400
H1419       H  0.98596327  0.91725535  0.41837096     0.37300
H1420       H  0.08455304  0.58144970  0.23669449     0.31800
H1421       H  0.93702598  0.52213034  0.24581671     0.30600
H1422       H  0.88477051  0.96738718  0.28253201     0.32300
H1423       H  0.90779139  0.90449355  0.37490309     0.31300
H1424       H  0.17894180  0.57667709  0.24100480     0.35300
H1425       H  0.15179270  0.49196952  0.24847267     0.28000
H1426       H  0.91733173  0.01070210  0.42350171     0.32300
H1427       H  0.90086606  0.91780229  0.42251172     0.35100
H1428       H  0.97197089  0.54729307  0.25442524     0.27700
H1429       H  0.18604247  0.52273316  0.24156273     0.40600
H1430       H  0.21451422  0.56614542  0.35098829     0.30600
H1431       H  0.18060774  0.59776813  0.32791480     0.38300
H1432       H  0.92520214  0.92099219  0.33847382     0.30100
H1433       H  0.07859269  0.98133379  0.43148284     0.30200
H1434       H  0.92319716  0.98607926  0.43030117     0.30400
Zr1435     Zr  0.00185163  0.77671151  0.36902461     2.17500
O1436       O  0.92779689  0.76057713  0.41236256    -0.51900
O1437       O  0.02507544  0.82224072  0.35368185    -0.75100
O1438       O  0.02643135  0.78540388  0.41614320    -0.81900
O1439       O  0.90951053  0.75463916  0.31742528    -0.83600
O1440       O  0.10098653  0.78622041  0.41705502    -0.79300
O1441       O  0.92134044  0.76975825  0.35878581    -0.90900
O1442       O  0.08998744  0.84731625  0.30828452    -0.76900
O1443       O  0.09327350  0.80452480  0.35003750    -0.86400
O1444       O  0.01986729  0.79139661  0.31241326    -0.86100
O1445       O  0.03214033  0.74860011  0.39190728    -0.72800
O1446       O  0.96321223  0.73693770  0.35652398    -0.84900
Zr1447     Zr  0.10719602  0.75162262  0.30186649     2.26400
Zr1448     Zr  0.12427767  0.77660061  0.37135362     2.06300
Zr1449     Zr  0.98358261  0.75187067  0.29960017     2.10000
Zr1450     Zr  0.11139416  0.81826832  0.29346124     1.78800
O1451       O  0.91171905  0.70812887  0.30501032    -0.93700
O1452       O  0.19361150  0.85431100  0.29507670    -0.41600
O1453       O  0.07579398  0.77930175  0.27966303    -0.78200
O1454       O  0.14567288  0.79167634  0.31419760    -0.96900
O1455       O  0.08835887  0.73695842  0.35852538    -0.90200
O1456       O  0.01514297  0.72388046  0.32034117    -0.93000
C1457       C  0.05751722  0.84428411  0.33128474     1.00700
C1458       C  0.89574428  0.76203911  0.33875867     1.13700
C1459       C  0.06371982  0.78794742  0.42871459     1.04400
O1460       O  0.19782030  0.81975538  0.36620562    -0.95200
O1461       O  0.19821226  0.77356871  0.35600002    -0.90900
O1462       O  0.19143114  0.76302991  0.31120908    -0.84100
C1463       C  0.21536778  0.76923023  0.33261117     1.11100
O1464       O  0.92885022  0.68976151  0.42591289    -0.97200
Zr1465     Zr  0.99674840  0.70998881  0.37714643     1.88900
O1466       O  0.08207411  0.70570430  0.31704394    -0.73800
O1467       O  0.14092402  0.75366860  0.41765414    -0.53100
O1468       O  0.01914515  0.69127877  0.42365157    -0.97700
O1469       O  0.91409996  0.67341499  0.37678924    -0.55000
O1470       O  0.01923768  0.68091714  0.36332936    -0.74300
C1471       C  0.05135312  0.68388023  0.34017693     0.98000
O1472       O  0.17335663  0.75388142  0.26467631    -0.63100
O1473       O  0.96325333  0.77311935  0.25383191    -0.57900
O1474       O  0.09389941  0.75622764  0.24829170    -0.94600
O1475       O  0.01461867  0.75025985  0.24914581    -0.93000
O1476       O  0.08861954  0.83811742  0.24801149    -0.93400
O1477       O  0.17734248  0.83813093  0.24384605    -0.92200
C1478       C  0.05717942  0.75399929  0.23508288     1.16900
H1479       H  0.00457309  0.80147029  0.30447044     0.32800
H1480       H  0.18265871  0.80236952  0.30543093     0.43700
H1481       H  0.00130611  0.70906741  0.31285935     0.37200
H1482       H  0.02262856  0.74266566  0.41491171     0.33700
H1483       H  0.19750713  0.87064631  0.28051565     0.25500
H1484       H  0.16001908  0.76718768  0.42731310     0.31400
H1485       H  0.00083766  0.67201942  0.42732260     0.37300
H1486       H  0.08014695  0.82612029  0.23557174     0.31800
H1487       H  0.92543294  0.76164846  0.25715440     0.30600
H1488       H  0.91414886  0.70778355  0.28304525     0.32300
H1489       H  0.91199500  0.65718385  0.39011201     0.31300
H1490       H  0.18613194  0.82465446  0.24409825     0.35300
H1491       H  0.15477813  0.73951139  0.25608682     0.28000
H1492       H  0.93519912  0.77593564  0.41889303     0.32300
H1493       H  0.92426051  0.70426534  0.42745336     0.35100
H1494       H  0.96875382  0.78959839  0.25663977     0.27700
H1495       H  0.18797698  0.77064634  0.24642446     0.40600
H1496       H  0.22041757  0.82632919  0.34476002     0.30600
H1497       H  0.18717773  0.85512894  0.31660611     0.38300
H1498       H  0.91878066  0.67314221  0.35485378     0.30100
H1499       H  0.10663644  0.74112888  0.43303075     0.30200
H1500       H  0.92932330  0.74803301  0.43056568     0.30400
Zr1501     Zr  0.49647230  0.52676671  0.36102515     2.17500
O1502       O  0.41693414  0.00733973  0.40557645    -0.51900
O1503       O  0.51593726  0.57146695  0.35149126    -0.75100
O1504       O  0.51538165  0.53081969  0.41137217    -0.81900
O1505       O  0.41574421  0.01707994  0.30132454    -0.83600
O1506       O  0.58739516  0.52918200  0.41363888    -0.79300
O1507       O  0.41776584  0.52126186  0.34768039    -0.90900
O1508       O  0.58754064  0.59914899  0.31033677    -0.76900
O1509       O  0.58840047  0.55264695  0.34882180    -0.86400
O1510       O  0.52507283  0.54849061  0.30468258    -0.86100
O1511       O  0.51641904  0.99393181  0.38235515    -0.72800
O1512       O  0.45886126  0.99204761  0.34052654    -0.84900
Zr1513     Zr  0.60668290  0.00843312  0.28972225     2.26400
Zr1514     Zr  0.61395808  0.52163997  0.36696079     2.06300
Zr1515     Zr  0.49024070  0.01482476  0.28417277     2.10000
Zr1516     Zr  0.61679991  0.57395166  0.29250186     1.78800
O1517       O  0.41504152  0.97775066  0.27771976    -0.93700
O1518       O  0.68942310  0.60725203  0.30590194    -0.41600
O1519       O  0.58524794  0.54034398  0.26898195    -0.78200
O1520       O  0.64540524  0.54431550  0.31054542    -0.96900
O1521       O  0.57634172  0.98546279  0.34572358    -0.90200
O1522       O  0.51462182  0.98327001  0.30142869    -0.93000
C1523       C  0.55067624  0.59456196  0.33164535     1.00700
C1524       C  0.39672432  0.51712019  0.32464396     1.13700
C1525       C  0.55062355  0.53139307  0.42515794     1.04400
O1526       O  0.69154044  0.55700683  0.37402914    -0.95200
O1527       O  0.68682127  0.51771530  0.35114293    -0.90900
O1528       O  0.68032658  0.00867338  0.30602326    -0.84100
C1529       C  0.70011997  0.01151490  0.32983389     1.11100
O1530       O  0.40723093  0.93812947  0.40128487    -0.97200
Zr1531     Zr  0.48469799  0.96098643  0.35764022     1.88900
O1532       O  0.58471714  0.96382746  0.29695899    -0.73800
O1533       O  0.59721871  0.98338022  0.41459895    -0.53100
O1534       O  0.49412034  0.93417937  0.40408134    -0.97700
O1535       O  0.40813573  0.92905765  0.34543245    -0.55000
O1536       O  0.51302621  0.93565394  0.33838026    -0.74300
C1537       C  0.54976287  0.94066013  0.31648824     0.98000
O1538       O  0.68947534  0.53609337  0.24452504    -0.63100
O1539       O  0.48917214  0.54647336  0.24013026    -0.57900
O1540       O  0.59077425  0.00818240  0.23798652    -0.94600
O1541       O  0.52076025  0.01168014  0.23472806    -0.93000
O1542       O  0.60981177  0.60048617  0.24463291    -0.93400
O1543       O  0.69600480  0.59762536  0.25015740    -0.92200
C1544       C  0.55808673  0.00988344  0.22323240     1.16900
H1545       H  0.51164761  0.55964731  0.29749408     0.32800
H1546       H  0.68272676  0.55431526  0.30447831     0.43700
H1547       H  0.50261770  0.97079637  0.29029652     0.37200
H1548       H  0.50280135  0.98521442  0.40519562     0.33700
H1549       H  0.69445130  0.62442140  0.29311864     0.25500
H1550       H  0.60138540  0.97139465  0.40535689     0.31400
H1551       H  0.47627914  0.91605228  0.40311747     0.37300
H1552       H  0.63023400  0.61895600  0.24433040     0.31800
H1553       H  0.52578269  0.56063129  0.22954812     0.30600
H1554       H  0.40957693  0.98557762  0.25724810     0.32300
H1555       H  0.40539323  0.91184655  0.35453988     0.31300
H1556       H  0.68644570  0.58886629  0.23413978     0.35300
H1557       H  0.68092810  0.54468477  0.22609684     0.28000
H1558       H  0.42433990  0.02057708  0.41609645     0.32300
H1559       H  0.39540800  0.91907452  0.40825718     0.35100
H1560       H  0.47680948  0.53775278  0.22437258     0.27700
H1561       H  0.71282747  0.55113677  0.25089163     0.40600
H1562       H  0.70694321  0.57176100  0.35325274     0.30600
H1563       H  0.67584762  0.60463800  0.32819056     0.38300
H1564       H  0.41765952  0.93358011  0.32207027     0.30100
H1565       H  0.62846005  0.99174979  0.42248070     0.30200
H1566       H  0.41477566  0.99205837  0.42143828     0.30400
Zr1567     Zr  0.50819072  0.78355444  0.36050878     2.17500
O1568       O  0.42977087  0.76708853  0.40018976    -0.51900
O1569       O  0.53249961  0.82939184  0.34439355    -0.75100
O1570       O  0.52761793  0.78994689  0.41000247    -0.81900
O1571       O  0.42502284  0.76622552  0.30239601    -0.83600
O1572       O  0.59986512  0.78885780  0.41398629    -0.79300
O1573       O  0.43049441  0.77839504  0.34601373    -0.90900
O1574       O  0.60343985  0.85441242  0.30228830    -0.76900
O1575       O  0.60020768  0.80858976  0.34724983    -0.86400
O1576       O  0.53567978  0.80096812  0.30383624    -0.86100
O1577       O  0.53057111  0.75214430  0.38497853    -0.72800
O1578       O  0.47049829  0.74541257  0.34468489    -0.84900
Zr1579     Zr  0.61555209  0.75717345  0.29670698     2.26400
Zr1580     Zr  0.62324172  0.77727570  0.37017169     2.06300
Zr1581     Zr  0.49943137  0.76311453  0.28783125     2.10000
Zr1582     Zr  0.62771947  0.82522053  0.29062233     1.78800
O1583       O  0.42973829  0.72191683  0.28501583    -0.93700
O1584       O  0.70622072  0.85774640  0.30043690    -0.41600
O1585       O  0.59174523  0.78802395  0.27353188    -0.78200
O1586       O  0.65385341  0.79514915  0.31311128    -0.96900
O1587       O  0.58834546  0.73975840  0.35329983    -0.90200
O1588       O  0.52336495  0.73202756  0.30988742    -0.93000
C1589       C  0.56753182  0.85144836  0.32281050     1.00700
C1590       C  0.40786315  0.77198398  0.32425222     1.13700
C1591       C  0.56291637  0.79140323  0.42424786     1.04400
O1592       O  0.70114564  0.81475507  0.37381907    -0.95200
O1593       O  0.69355178  0.77053619  0.35915763    -0.90900
O1594       O  0.68752507  0.75785956  0.31581166    -0.84100
C1595       C  0.70865698  0.76310337  0.33846327     1.11100
O1596       O  0.42532803  0.69303368  0.41415833    -0.97200
Zr1597     Zr  0.49671085  0.71522611  0.36672596     1.88900
O1598       O  0.58798234  0.71119671  0.30932485    -0.73800
O1599       O  0.61847078  0.74625603  0.41877734    -0.53100
O1600       O  0.51160114  0.69251165  0.41416771    -0.97700
O1601       O  0.41531978  0.68282326  0.35932066    -0.55000
O1602       O  0.51797522  0.68604477  0.35163968    -0.74300
C1603       C  0.55242484  0.68887780  0.33007838     0.98000
O1604       O  0.68858943  0.77205348  0.25340897    -0.63100
O1605       O  0.48766252  0.78832903  0.24094954    -0.57900
O1606       O  0.60496623  0.75809749  0.24353768    -0.94600
O1607       O  0.53970127  0.76527072  0.23766475    -0.93000
O1608       O  0.62167444  0.84834437  0.23964243    -0.93400
O1609       O  0.70321958  0.84544554  0.24653419    -0.92200
C1610       C  0.57642998  0.76275611  0.22707535     1.16900
H1611       H  0.52320079  0.81220333  0.29476374     0.32800
H1612       H  0.69109315  0.80441464  0.30674216     0.43700
H1613       H  0.51003488  0.71803611  0.30101581     0.37200
H1614       H  0.51764102  0.74539932  0.40788118     0.33700
H1615       H  0.71338494  0.87519984  0.28684409     0.25500
H1616       H  0.64348648  0.75764402  0.42877847     0.31400
H1617       H  0.54572581  0.69510888  0.40690250     0.37300
H1618       H  0.64130323  0.86734142  0.23737293     0.31800
H1619       H  0.45088644  0.77726993  0.24113331     0.30600
H1620       H  0.42068437  0.72745127  0.26496645     0.32300
H1621       H  0.42525791  0.67814236  0.34155195     0.31300
H1622       H  0.69893626  0.83056045  0.23991039     0.35300
H1623       H  0.71861239  0.78724598  0.25628058     0.28000
H1624       H  0.43706609  0.78156885  0.40849406     0.32300
H1625       H  0.41229221  0.67385653  0.42024424     0.35100
H1626       H  0.49079371  0.80378241  0.24560663     0.27700
H1627       H  0.69585282  0.75771453  0.25810856     0.40600
H1628       H  0.72487446  0.82350482  0.35225659     0.30600
H1629       H  0.69559732  0.85657797  0.32251415     0.38300
H1630       H  0.39998720  0.69311220  0.35031518     0.30100
H1631       H  0.58418366  0.73866385  0.43298357     0.30200
H1632       H  0.42706141  0.75267059  0.41796367     0.30400
Zr1633     Zr  0.06052269  0.56181632  0.02906684     2.17500
O1634       O  0.02366616  0.56964777  0.07238285    -0.51900
O1635       O  0.14863167  0.59824626  0.01894797    -0.75100
O1636       O  0.07496459  0.54426508  0.07978280    -0.81900
O1637       O  0.02250304  0.60190719  0.96949275    -0.83600
O1638       O  0.06215373  0.50377185  0.08453277    -0.79300
O1639       O  0.04856236  0.59877456  0.01540892    -0.90900
O1640       O  0.19642414  0.59994180  0.97599126    -0.76900
O1641       O  0.11118254  0.54467520  0.01598573    -0.86400
O1642       O  0.09276860  0.58091688  0.97257885    -0.86100
O1643       O  0.00151571  0.51461195  0.04824237    -0.72800
O1644       O  0.98612428  0.54905353  0.00789197    -0.84900
Zr1645     Zr  0.00785743  0.00141526  0.95777857     2.26400
Zr1646     Zr  0.04921424  0.99646896  0.03468440     2.06300
Zr1647     Zr  0.01899114  0.56716524  0.95125435     2.10000
Zr1648     Zr  0.14200722  0.56322229  0.95946065     1.78800
O1649       O  0.93922822  0.56428755  0.94313202    -0.93700
O1650       O  0.21069250  0.55604100  0.97157761    -0.41600
O1651       O  0.06852762  0.54930948  0.93779100    -0.78200
O1652       O  0.08566160  0.51593578  0.97716120    -0.96900
O1653       O  0.97479604  0.98338314  0.01395842    -0.90200
O1654       O  0.96004592  0.51992789  0.96915938    -0.93000
C1655       C  0.19099292  0.60877659  0.99797427     1.00700
C1656       C  0.03531424  0.60992286  0.99289451     1.13700
C1657       C  0.07011876  0.52224934  0.09552681     1.04400
O1658       O  0.12550087  0.99563506  0.04353589    -0.95200
O1659       O  0.04622467  0.96180072  0.01738930    -0.90900
O1660       O  0.02074577  0.96427131  0.97143423    -0.84100
C1661       C  0.03489627  0.95362585  0.99397854     1.11100
O1662       O  0.89053392  0.50897351  0.06921497    -0.97200
Zr1663     Zr  0.92895325  0.50190469  0.02577159     1.88900
O1664       O  0.91813306  0.96595381  0.96903091    -0.73800
O1665       O  0.98828537  0.95277137  0.07461582    -0.53100
O1666       O  0.88595366  0.96498722  0.07576143    -0.97700
O1667       O  0.86144829  0.50976920  0.01241428    -0.55000
O1668       O  0.87202512  0.96509103  0.01189403    -0.74300
C1669       C  0.87621896  0.95568503  0.99029894     0.98000
O1670       O  0.03287747  0.98799408  0.91631105    -0.63100
O1671       O  0.07034469  0.60983198  0.90762327    -0.57900
O1672       O  0.00759759  0.52325096  0.90381964    -0.94600
O1673       O  0.02247379  0.56399995  0.89856444    -0.93000
O1674       O  0.18152377  0.60172820  0.91043910    -0.93400
O1675       O  0.18392217  0.55822168  0.91549428    -0.92200
C1676       C  0.01648626  0.54603732  0.88711094     1.16900
H1677       H  0.11359428  0.60007846  0.96537555     0.32800
H1678       H  0.10526104  0.50892828  0.97047130     0.43700
H1679       H  0.93222075  0.51531903  0.95868666     0.37200
H1680       H  0.98790449  0.50796487  0.07104606     0.33700
H1681       H  0.24309456  0.57319813  0.95930728     0.25500
H1682       H  0.00935187  0.94872583  0.08781948     0.31400
H1683       H  0.84937723  0.95464984  0.07516158     0.37300
H1684       H  0.21704713  0.61349141  0.91186643     0.31800
H1685       H  0.04612141  0.61574541  0.90319922     0.30600
H1686       H  0.95035163  0.58236067  0.92901635     0.32300
H1687       H  0.85295983  0.00420388  0.99331356     0.31300
H1688       H  0.15689210  0.55080158  0.90414080     0.35300
H1689       H  0.00854204  0.48313497  0.90453169     0.28000
H1690       H  0.05202427  0.57835684  0.08234013     0.32300
H1691       H  0.85278879  0.49627589  0.07411213     0.35100
H1692       H  0.09468332  0.62233291  0.91684479     0.27700
H1693       H  0.06270909  0.00436549  0.90014254     0.40600
H1694       H  0.14534630  0.49801051  0.02035291     0.30600
H1695       H  0.20922246  0.55473072  0.99412154     0.38300
H1696       H  0.87946249  0.52929714  0.00227978     0.30100
H1697       H  0.96637298  0.95557335  0.08863307     0.30200
H1698       H  0.99895630  0.55182084  0.08857090     0.30400
Zr1699     Zr  0.06944467  0.81196077  0.03405616     2.17500
O1700       O  0.03412519  0.82001643  0.07769764    -0.51900
O1701       O  0.15940057  0.84701719  0.02493826    -0.75100
O1702       O  0.07833053  0.79146224  0.08579719    -0.81900
O1703       O  0.03944509  0.85469740  0.97263445    -0.83600
O1704       O  0.05958816  0.74996609  0.09047054    -0.79300
O1705       O  0.06095496  0.85044893  0.01990935    -0.90900
O1706       O  0.20685077  0.84762526  0.98282980    -0.76900
O1707       O  0.11472703  0.79162982  0.02301215    -0.86400
O1708       O  0.10585332  0.83115276  0.97790155    -0.86100
O1709       O  0.00513219  0.76519905  0.05160206    -0.72800
O1710       O  0.99830229  0.80226600  0.00984886    -0.84900
Zr1711     Zr  0.01644867  0.75399040  0.95937562     2.26400
Zr1712     Zr  0.05085130  0.74514892  0.03889143     2.06300
Zr1713     Zr  0.03533482  0.82059575  0.95369133     2.10000
Zr1714     Zr  0.15076155  0.81078644  0.96693384     1.78800
O1715       O  0.96019232  0.82213009  0.94336660    -0.93700
O1716       O  0.21373687  0.80098259  0.98519672    -0.41600
O1717       O  0.08086886  0.80046039  0.94192250    -0.78200
O1718       O  0.08890387  0.76403194  0.98251277    -0.96900
O1719       O  0.97970940  0.73502110  0.01529543    -0.90200
O1720       O  0.97107586  0.77431119  0.97016770    -0.93000
C1721       C  0.20196707  0.85709085  0.00423443     1.00700
C1722       C  0.04949162  0.86214346  0.99665713     1.13700
C1723       C  0.06990238  0.76855764  0.10177381     1.04400
O1724       O  0.12379515  0.74110650  0.04852669    -0.95200
O1725       O  0.04286443  0.70934625  0.02160414    -0.90900
O1726       O  0.02129547  0.71458611  0.97429373    -0.84100
C1727       C  0.03121605  0.70210900  0.99758122     1.11100
O1728       O  0.90143074  0.77057448  0.06233002    -0.97200
Zr1729     Zr  0.93553491  0.75571833  0.02649543     1.88900
O1730       O  0.92577075  0.72000889  0.96849824    -0.73800
O1731       O  0.98670094  0.70183772  0.07850734    -0.53100
O1732       O  0.89001291  0.72026693  0.07837965    -0.97700
O1733       O  0.86637778  0.76065434  0.00969956    -0.55000
O1734       O  0.88083545  0.71657931  0.01412525    -0.74300
C1735       C  0.88472088  0.70845705  0.99114619     0.98000
O1736       O  0.04205806  0.74502629  0.91331741    -0.63100
O1737       O  0.09413902  0.86357720  0.91170888    -0.57900
O1738       O  0.01785989  0.77623818  0.90568624    -0.94600
O1739       O  0.03462903  0.81732661  0.90115605    -0.93000
O1740       O  0.19640534  0.84896216  0.91746956    -0.93400
O1741       O  0.19620729  0.80417492  0.92650189    -0.92200
C1742       C  0.02734026  0.79928057  0.88951970     1.16900
H1743       H  0.12849555  0.85021963  0.97100221     0.32800
H1744       H  0.10664499  0.75593411  0.97649500     0.43700
H1745       H  0.94491252  0.77113586  0.95846657     0.37200
H1746       H  0.99024250  0.75846570  0.07428277     0.33700
H1747       H  0.24772607  0.81653265  0.97171885     0.25500
H1748       H  0.00643164  0.69707387  0.09227370     0.31400
H1749       H  0.85289495  0.71281006  0.07930807     0.37300
H1750       H  0.16930440  0.84777458  0.90632106     0.31800
H1751       H  0.07302384  0.87143196  0.90685435     0.30600
H1752       H  0.93638846  0.81429685  0.96474236     0.32300
H1753       H  0.83415177  0.74495791  0.02490613     0.31300
H1754       H  0.17294809  0.79919272  0.91225514     0.35300
H1755       H  0.07268692  0.74397326  0.91608383     0.28000
H1756       H  0.06280499  0.82842935  0.08756673     0.32300
H1757       H  0.86411913  0.75687235  0.07101933     0.35100
H1758       H  0.11901074  0.87467958  0.92200373     0.27700
H1759       H  0.01431064  0.72675436  0.91596683     0.40600
H1760       H  0.14792323  0.75755801  0.05226980     0.30600
H1761       H  0.21298117  0.80243456  0.00663950     0.38300
H1762       H  0.86500659  0.75749582  0.98921976     0.30100
H1763       H  0.96542079  0.70527769  0.09205957     0.30200
H1764       H  0.00889253  0.80228703  0.09390786     0.30400
Zr1765     Zr  0.57574309  0.56612891  0.02381601     2.17500
O1766       O  0.55583068  0.58075971  0.06566223    -0.51900
O1767       O  0.66556410  0.60246455  0.01028983    -0.75100
O1768       O  0.58846335  0.54708338  0.07461844    -0.81900
O1769       O  0.52595735  0.60258857  0.96847846    -0.83600
O1770       O  0.58066550  0.50788870  0.07772709    -0.79300
O1771       O  0.55537862  0.60047783  0.01315327    -0.90900
O1772       O  0.70904506  0.60517020  0.96465554    -0.76900
O1773       O  0.62454844  0.54842631  0.00921604    -0.86400
O1774       O  0.60363527  0.58434251  0.96717265    -0.86100
O1775       O  0.51635598  0.51865043  0.04425087    -0.72800
O1776       O  0.49822436  0.55235714  0.00564881    -0.84900
Zr1777     Zr  0.51742591  0.00390684  0.95386061     2.26400
Zr1778     Zr  0.56546969  0.50120657  0.02790633     2.06300
Zr1779     Zr  0.52676157  0.56967408  0.94872680     2.10000
Zr1780     Zr  0.65139558  0.56623380  0.95253066     1.78800
O1781       O  0.44587604  0.56568296  0.94133822    -0.93700
O1782       O  0.72323893  0.56171054  0.96405232    -0.41600
O1783       O  0.57493423  0.55169601  0.93385165    -0.78200
O1784       O  0.59465514  0.51869183  0.97086834    -0.96900
O1785       O  0.48628321  0.98668821  0.01011807    -0.90200
O1786       O  0.46725394  0.52245755  0.96782786    -0.93000
C1787       C  0.70607028  0.61374133  0.98734422     1.00700
C1788       C  0.53794330  0.61028737  0.99209004     1.13700
C1789       C  0.58704202  0.52580051  0.08937907     1.04400
O1790       O  0.64178125  0.00109522  0.03339321    -0.95200
O1791       O  0.55205524  0.96306811  0.01413092    -0.90900
O1792       O  0.53337976  0.96791387  0.96598628    -0.84100
C1793       C  0.54304785  0.95581426  0.98984246     1.11100
O1794       O  0.40692580  0.51171014  0.07032982    -0.97200
Zr1795     Zr  0.44073321  0.50510539  0.02466492     1.88900
O1796       O  0.42749231  0.96697924  0.96923412    -0.73800
O1797       O  0.50810470  0.95757610  0.07286600    -0.53100
O1798       O  0.40648907  0.97276514  0.07525360    -0.97700
O1799       O  0.37139771  0.51235931  0.01437908    -0.55000
O1800       O  0.38412026  0.96666680  0.01289862    -0.74300
C1801       C  0.38712948  0.95647492  0.99199819     0.98000
O1802       O  0.52518815  0.99125070  0.90759071    -0.63100
O1803       O  0.57674160  0.61284752  0.90582721    -0.57900
O1804       O  0.51478799  0.52626240  0.90066968    -0.94600
O1805       O  0.52731702  0.56663148  0.89609567    -0.93000
O1806       O  0.68542701  0.60233359  0.90154145    -0.93400
O1807       O  0.69088559  0.55880925  0.91005535    -0.92200
C1808       C  0.52141989  0.54864668  0.88471309     1.16900
H1809       H  0.62417277  0.60351545  0.95956195     0.32800
H1810       H  0.61329762  0.51144325  0.96354578     0.43700
H1811       H  0.43828011  0.51761930  0.95835251     0.37200
H1812       H  0.50422531  0.51209101  0.06717989     0.33700
H1813       H  0.75456102  0.57850663  0.94965640     0.25500
H1814       H  0.53213002  0.95526775  0.08474611     0.31400
H1815       H  0.36948398  0.96080350  0.07667576     0.37300
H1816       H  0.72343010  0.61178912  0.89808889     0.31800
H1817       H  0.55334090  0.61956303  0.90388567     0.30600
H1818       H  0.45645139  0.58211478  0.92352917     0.32300
H1819       H  0.33817744  0.99376969  0.02196442     0.31300
H1820       H  0.66325663  0.55096707  0.89924629     0.35300
H1821       H  0.55777132  0.49391536  0.90372668     0.28000
H1822       H  0.58745688  0.58860301  0.07335616     0.32300
H1823       H  0.36907495  0.49894194  0.07633371     0.35100
H1824       H  0.60386886  0.62465367  0.91440402     0.27700
H1825       H  0.49963271  0.97191079  0.91462965     0.40600
H1826       H  0.65905519  0.50417277  0.00635929     0.30600
H1827       H  0.72444352  0.56272651  0.98562485     0.38300
H1828       H  0.38834307  0.53191358  0.00589073     0.30100
H1829       H  0.48716233  0.96055513  0.08738188     0.30200
H1830       H  0.52982780  0.56436987  0.08363084     0.30400
Zr1831     Zr  0.56295825  0.81119381  0.03102061     2.17500
O1832       O  0.52879565  0.81909441  0.07525007    -0.51900
O1833       O  0.65214073  0.84724762  0.01871628    -0.75100
O1834       O  0.58125939  0.79455494  0.08050363    -0.81900
O1835       O  0.53034991  0.85235334  0.97086575    -0.83600
O1836       O  0.56864024  0.75419895  0.08618595    -0.79300
O1837       O  0.55383327  0.84913681  0.01765468    -0.90900
O1838       O  0.69835367  0.84650229  0.97731296    -0.76900
O1839       O  0.60912410  0.79150677  0.01947638    -0.86400
O1840       O  0.59508047  0.82884921  0.97452046    -0.86100
O1841       O  0.50032652  0.76433537  0.05184085    -0.72800
O1842       O  0.48860129  0.79961123  0.00992527    -0.84900
Zr1843     Zr  0.50525612  0.74939533  0.96164846     2.26400
Zr1844     Zr  0.54663578  0.74480063  0.03869038     2.06300
Zr1845     Zr  0.52114568  0.81627083  0.95347737     2.10000
Zr1846     Zr  0.64064947  0.80886426  0.96311741     1.78800
O1847       O  0.44145965  0.81432384  0.94720706    -0.93700
O1848       O  0.70691453  0.80051994  0.97793558    -0.41600
O1849       O  0.56721453  0.79637299  0.94138967    -0.78200
O1850       O  0.58067865  0.76174376  0.98202565    -0.96900
O1851       O  0.47222478  0.73213185  0.01788797    -0.90200
O1852       O  0.45905692  0.76942277  0.97248952    -0.93000
C1853       C  0.69423710  0.85666343  0.99810140     1.00700
C1854       C  0.54186997  0.86039243  0.99440858     1.13700
C1855       C  0.57931804  0.77334499  0.09635184     1.04400
O1856       O  0.61841854  0.73996018  0.04912953    -0.95200
O1857       O  0.53942169  0.70833433  0.02385840    -0.90900
O1858       O  0.51427981  0.71101967  0.97770414    -0.84100
C1859       C  0.52741372  0.70008762  0.00062966     1.11100
O1860       O  0.39346414  0.76480774  0.06862955    -0.97200
Zr1861     Zr  0.42768452  0.75276202  0.02909962     1.88900
O1862       O  0.41446953  0.71517628  0.97308283    -0.73800
O1863       O  0.48261494  0.70419041  0.08241228    -0.53100
O1864       O  0.38364214  0.71606975  0.08003437    -0.97700
O1865       O  0.36108317  0.76128803  0.01506861    -0.55000
O1866       O  0.36909515  0.71489317  0.01591043    -0.74300
C1867       C  0.37269677  0.70550599  0.99418854     0.98000
O1868       O  0.52472545  0.73724396  0.91705460    -0.63100
O1869       O  0.57142557  0.85853985  0.90914634    -0.57900
O1870       O  0.50629746  0.77052884  0.90749861    -0.94600
O1871       O  0.52069092  0.81130522  0.90167613    -0.93000
O1872       O  0.68445334  0.84629645  0.91291545    -0.93400
O1873       O  0.67972097  0.80017928  0.92188383    -0.92200
C1874       C  0.51448312  0.79312338  0.89055045     1.16900
H1875       H  0.61721506  0.84798191  0.96662410     0.32800
H1876       H  0.59866182  0.75374577  0.97604864     0.43700
H1877       H  0.43156280  0.76520413  0.96176597     0.37200
H1878       H  0.48795331  0.75844261  0.07469835     0.33700
H1879       H  0.73998468  0.81675089  0.96439767     0.25500
H1880       H  0.50284216  0.69751679  0.09298061     0.31400
H1881       H  0.38609096  0.70157281  0.07620397     0.37300
H1882       H  0.65635836  0.84752309  0.90498395     0.31800
H1883       H  0.54968235  0.86625704  0.90784473     0.30600
H1884       H  0.45067984  0.83296612  0.94122362     0.32300
H1885       H  0.32797053  0.74425220  0.02646444     0.31300
H1886       H  0.65221521  0.79225563  0.91102989     0.35300
H1887       H  0.55799267  0.73842974  0.91750364     0.28000
H1888       H  0.55847881  0.82864520  0.08386710     0.32300
H1889       H  0.35653589  0.75048902  0.07756828     0.35100
H1890       H  0.60079170  0.87014453  0.91657189     0.27700
H1891       H  0.49864193  0.71810804  0.92259009     0.40600
H1892       H  0.64509422  0.75048574  0.02857945     0.30600
H1893       H  0.70666001  0.80115685  0.99973610     0.38300
H1894       H  0.36369698  0.76334465  0.99228574     0.30100
H1895       H  0.47039631  0.71015654  0.09780731     0.30200
H1896       H  0.50587284  0.80140788  0.09209476     0.30400
Zr1897     Zr  0.99584879  0.55691535  0.61015370     2.17500
O1898       O  0.96635824  0.57476089  0.56697965    -0.51900
O1899       O  0.92458052  0.51158867  0.62308172    -0.75100
O1900       O  0.01929540  0.55063176  0.56136026    -0.81900
O1901       O  0.92868289  0.57219759  0.66930959    -0.83600
O1902       O  0.09594662  0.55321906  0.55889296    -0.79300
O1903       O  0.92536924  0.56296683  0.62366415    -0.90900
O1904       O  0.93144120  0.48484916  0.66538255    -0.76900
O1905       O  0.03438145  0.53153327  0.62356433    -0.86400
O1906       O  0.97010643  0.53710993  0.66675556    -0.86100
O1907       O  0.08716282  0.58822275  0.58909676    -0.72800
O1908       O  0.02608174  0.59318001  0.62957760    -0.84900
Zr1909     Zr  0.13150613  0.57863406  0.68052913     2.26400
Zr1910     Zr  0.12550151  0.56261730  0.60465057     2.06300
Zr1911     Zr  0.00201736  0.57303567  0.68634879     2.10000
Zr1912     Zr  0.00919843  0.51202444  0.67996423     1.78800
O1913       O  0.00960583  0.61273010  0.69244309    -0.93700
O1914       O  0.02308670  0.47978933  0.66633521    -0.41600
O1915       O  0.04028358  0.54742277  0.70057174    -0.78200
O1916       O  0.10098422  0.54199741  0.66151475    -0.96900
O1917       O  0.15736534  0.59873091  0.62400204    -0.90200
O1918       O  0.09317804  0.60420834  0.66711918    -0.93000
C1919       C  0.90812845  0.48892131  0.64425863     1.00700
C1920       C  0.90799764  0.56811428  0.64616994     1.13700
C1921       C  0.05666108  0.54964213  0.54804076     1.04400
O1922       O  0.12840878  0.52479234  0.60037329    -0.95200
O1923       O  0.20144879  0.56526036  0.61926534    -0.90900
O1924       O  0.20207935  0.57242411  0.66630629    -0.84100
C1925       C  0.22088101  0.56853487  0.64304804     1.11100
O1926       O  0.09572432  0.64479967  0.56543985    -0.97200
Zr1927     Zr  0.11750411  0.62337146  0.61026625     1.88900
O1928       O  0.20017177  0.62449364  0.66804485    -0.73800
O1929       O  0.19949443  0.59458936  0.55906798    -0.53100
O1930       O  0.18820666  0.64711890  0.56217250    -0.97700
O1931       O  0.10362843  0.65684215  0.62014657    -0.55000
O1932       O  0.19292011  0.65099436  0.62578521    -0.74300
C1933       C  0.21571014  0.64717714  0.64727432     0.98000
O1934       O  0.16828439  0.56994294  0.72481639    -0.63100
O1935       O  0.92476201  0.54319238  0.73057124    -0.56700
O1936       O  0.09505822  0.57192143  0.73508432    -0.94600
O1937       O  0.02012589  0.57120179  0.73785703    -0.93000
O1938       O  0.94068851  0.48619874  0.72917302    -0.93400
O1939       O  0.03183897  0.48979385  0.72333877    -0.92200
C1940       C  0.05504481  0.56985540  0.75037827     1.16900
H1941       H  0.93295828  0.52597173  0.67455913     0.32800
H1942       H  0.11683515  0.53197186  0.66815596     0.43700
H1943       H  0.10428175  0.61750841  0.67706706     0.37200
H1944       H  0.09546312  0.59582740  0.56613248     0.33700
H1945       H  0.98973214  0.96142907  0.68229940     0.25500
H1946       H  0.20075713  0.58411268  0.54604863     0.31400
H1947       H  0.21189182  0.66472485  0.56355200     0.37300
H1948       H  0.94206763  0.99921858  0.73991697     0.31800
H1949       H  0.91244595  0.55447895  0.73480211     0.30600
H1950       H  0.97970392  0.60593899  0.71025490     0.32300
H1951       H  0.13426104  0.67409590  0.60605247     0.31300
H1952       H  0.05844525  0.50434320  0.72914787     0.35300
H1953       H  0.16765030  0.55349241  0.72624224     0.28000
H1954       H  0.94548300  0.55987081  0.55962791     0.32300
H1955       H  0.12447597  0.66366371  0.55667277     0.35100
H1956       H  0.89827749  0.53124649  0.72177849     0.27700
H1957       H  0.20527182  0.58426128  0.71796144     0.40600
H1958       H  0.12408385  0.51427063  0.62247369     0.30600
H1959       H  0.01280799  0.47942541  0.64608876     0.38300
H1960       H  0.10780894  0.65609114  0.64192308     0.30100
H1961       H  0.18881213  0.60600858  0.54632574     0.30200
H1962       H  0.99769258  0.58759233  0.54918881     0.30400
Zr1963     Zr  0.98589760  0.80047929  0.61637305     2.17500
O1964       O  0.95763740  0.81851776  0.57261496    -0.51900
O1965       O  0.91572084  0.75505889  0.62893299    -0.75100
O1966       O  0.01204397  0.79545754  0.56727484    -0.81900
O1967       O  0.91909721  0.81654244  0.67395815    -0.83600
O1968       O  0.09034213  0.79981833  0.56408035    -0.79300
O1969       O  0.91423780  0.80589620  0.62926742    -0.90900
O1970       O  0.92178816  0.72864449  0.67204174    -0.76900
O1971       O  0.02476078  0.77531689  0.63028832    -0.86400
O1972       O  0.96006993  0.78119732  0.67300055    -0.86100
O1973       O  0.07707718  0.83202609  0.59554792    -0.72800
O1974       O  0.01551229  0.83700184  0.63519759    -0.84900
Zr1975     Zr  0.12207438  0.82412148  0.68654164     2.26400
Zr1976     Zr  0.11587704  0.80679507  0.61149330     2.06300
Zr1977     Zr  0.99184274  0.81745923  0.69194226     2.10000
Zr1978     Zr  0.99944617  0.75640707  0.68683401     1.78800
O1979       O  0.99992839  0.85760805  0.69675370    -0.93700
O1980       O  0.01530384  0.72460984  0.67362572    -0.41600
O1981       O  0.03082257  0.79223746  0.70700604    -0.78200
O1982       O  0.09119037  0.78701572  0.66832011    -0.96900
O1983       O  0.14712529  0.84330244  0.62996114    -0.90200
O1984       O  0.08291370  0.84917765  0.67267017    -0.93000
C1985       C  0.89900197  0.73250488  0.65039828     1.00700
C1986       C  0.89779289  0.81188817  0.65119690     1.13700
C1987       C  0.05118975  0.79628417  0.55310461     1.04400
O1988       O  0.11796806  0.76784565  0.61143738    -0.95200
O1989       O  0.19392329  0.81203745  0.62533501    -0.90900
O1990       O  0.19344444  0.81863318  0.67280394    -0.84100
C1991       C  0.21285010  0.81522080  0.64928668     1.11100
O1992       O  0.08132603  0.88779274  0.57205469    -0.97200
Zr1993     Zr  0.10668758  0.86757749  0.61579252     1.88900
O1994       O  0.19119342  0.87035956  0.67296371    -0.73800
O1995       O  0.18737620  0.83702027  0.56405379    -0.53100
O1996       O  0.17332226  0.89338078  0.56560947    -0.97700
O1997       O  0.09400235  0.90063553  0.62818993    -0.55000
O1998       O  0.18765560  0.89448840  0.62663395    -0.74300
C1999       C  0.20945392  0.89193699  0.64912460     0.98000
O2000       O  0.16386570  0.81310024  0.72664687    -0.63100
O2001       O  0.91370240  0.78865201  0.73562113    -0.57900
O2002       O  0.08858678  0.82127788  0.73967339    -0.94600
O2003       O  0.00876550  0.81514817  0.74367619    -0.93000
O2004       O  0.92970297  0.73080160  0.73547147    -0.93400
O2005       O  0.02066445  0.73403777  0.73102441    -0.92200
C2006       C  0.04651961  0.81702887  0.75533622     1.16900
H2007       H  0.92292233  0.76999006  0.68078536     0.32800
H2008       H  0.10763051  0.77731064  0.67500958     0.43700
H2009       H  0.09395056  0.86256154  0.68247410     0.37200
H2010       H  0.08564990  0.83964624  0.57257889     0.33700
H2011       H  0.98737388  0.70706164  0.68902609     0.25500
H2012       H  0.21480156  0.84999366  0.57134468     0.31400
H2013       H  0.19305414  0.88460903  0.56612080     0.37300
H2014       H  0.93075481  0.74426325  0.74399494     0.31800
H2015       H  0.90160540  0.80025554  0.73891208     0.30600
H2016       H  0.96834446  0.85118855  0.71297580     0.32300
H2017       H  0.12349654  0.91797283  0.61338827     0.31300
H2018       H  0.05615342  0.74754577  0.73064666     0.35300
H2019       H  0.17695863  0.82746057  0.73573221     0.28000
H2020       H  0.93726032  0.80372300  0.56500906     0.32300
H2021       H  0.10507225  0.90724636  0.56584730     0.35100
H2022       H  0.88741757  0.77643887  0.72698199     0.27700
H2023       H  0.13593721  0.79697835  0.74416330     0.40600
H2024       H  0.08729993  0.75724857  0.60419310     0.30600
H2025       H  0.00671504  0.72464416  0.65287594     0.38300
H2026       H  0.10067566  0.90018420  0.64942253     0.30100
H2027       H  0.20079622  0.82630289  0.55926811     0.30200
H2028       H  0.98932590  0.83146365  0.55509808     0.30400
Zr2029     Zr  0.49020018  0.55020345  0.61083312     2.17500
O2030       O  0.46201817  0.56862917  0.56732062    -0.51900
O2031       O  0.42237697  0.50411067  0.62279578    -0.75100
O2032       O  0.51645866  0.54548865  0.56141867    -0.81900
O2033       O  0.41907713  0.56349701  0.66990279    -0.83600
O2034       O  0.59650397  0.55220695  0.55719681    -0.79300
O2035       O  0.41583072  0.55338879  0.62468068    -0.90900
O2036       O  0.43016482  0.47798096  0.66513869    -0.76900
O2037       O  0.53171279  0.52632099  0.62359198    -0.86400
O2038       O  0.46358170  0.52934282  0.66727162    -0.86100
O2039       O  0.58090644  0.58363202  0.59078864    -0.72800
O2040       O  0.51755054  0.58569809  0.63159400    -0.84900
Zr2041     Zr  0.62345698  0.57248749  0.68279165     2.26400
Zr2042     Zr  0.62197034  0.55937225  0.60487197     2.06300
Zr2043     Zr  0.49168285  0.56435343  0.68813229     2.10000
Zr2044     Zr  0.50582983  0.50586835  0.68008454     1.78800
O2045       O  0.49151559  0.60168240  0.69670647    -0.93700
O2046       O  0.52365836  0.47468090  0.66688269    -0.41600
O2047       O  0.53270746  0.54013764  0.70226225    -0.78200
O2048       O  0.59681702  0.53726528  0.66157691    -0.96900
O2049       O  0.65059863  0.59408454  0.62648392    -0.90200
O2050       O  0.58243754  0.59677477  0.67045075    -0.93000
C2051       C  0.40709221  0.48144116  0.64374887     1.00700
C2052       C  0.39840476  0.55876945  0.64688705     1.13700
C2053       C  0.55659228  0.54745386  0.54654796     1.04400
O2054       O  0.63188377  0.52487073  0.59508823    -0.95200
O2055       O  0.69760124  0.56257666  0.62017496    -0.90900
O2056       O  0.69721624  0.56905661  0.66750605    -0.84100
C2057       C  0.71682882  0.56568251  0.64400502     1.11100
O2058       O  0.58454379  0.64084099  0.57250360    -0.97200
Zr2059     Zr  0.60873778  0.61772000  0.61401051     1.88900
O2060       O  0.69129923  0.61803669  0.67254445    -0.73800
O2061       O  0.69676898  0.59520222  0.56170591    -0.53100
O2062       O  0.67720735  0.64432868  0.56465934    -0.97700
O2063       O  0.59129937  0.64839368  0.62922677    -0.55000
O2064       O  0.68633476  0.64485445  0.62931060    -0.74300
C2065       C  0.70837506  0.64074773  0.65130186     0.98000
O2066       O  0.65189670  0.55732166  0.72846131    -0.63100
O2067       O  0.41427342  0.53186051  0.73149504    -0.57900
O2068       O  0.59032381  0.56977262  0.73566397    -0.94600
O2069       O  0.51054673  0.56366982  0.73909724    -0.93000
O2070       O  0.43451699  0.47853494  0.72792625    -0.93400
O2071       O  0.52766867  0.48402541  0.72434645    -0.92200
C2072       C  0.54852451  0.56610055  0.75086517     1.16900
H2073       H  0.42649130  0.51758404  0.67475458     0.32800
H2074       H  0.61383537  0.52776273  0.66761267     0.43700
H2075       H  0.59197026  0.60950355  0.68119936     0.37200
H2076       H  0.58939038  0.59182889  0.56789716     0.33700
H2077       H  0.50117898  0.95936331  0.67744648     0.25500
H2078       H  0.70809648  0.58614059  0.55078823     0.31400
H2079       H  0.70562437  0.64180496  0.56942634     0.37300
H2080       H  0.42195427  0.98794536  0.73124346     0.31800
H2081       H  0.40113886  0.54229143  0.73758217     0.30600
H2082       H  0.45553583  0.59415099  0.70833862     0.32300
H2083       H  0.60689625  0.65120881  0.64732275     0.31300
H2084       H  0.56020097  0.49849625  0.72621325     0.35300
H2085       H  0.65201113  0.54167139  0.72674663     0.28000
H2086       H  0.44193292  0.55401524  0.55937869     0.32300
H2087       H  0.61060103  0.66000102  0.56681130     0.35100
H2088       H  0.38837116  0.52087384  0.72159083     0.27700
H2089       H  0.68872957  0.57128291  0.72441802     0.40600
H2090       H  0.61560552  0.51015944  0.61593477     0.30600
H2091       H  0.51661653  0.47517181  0.64569643     0.38300
H2092       H  0.55356003  0.63794650  0.63877437     0.30100
H2093       H  0.68265069  0.60305741  0.54638936     0.30200
H2094       H  0.49379644  0.58176671  0.54993183     0.30400
Zr2095     Zr  0.49275393  0.80830738  0.61104476     2.17500
O2096       O  0.46534911  0.82725928  0.56748049    -0.51900
O2097       O  0.42163087  0.76303536  0.62258128    -0.75100
O2098       O  0.52067557  0.80467539  0.56072110    -0.81900
O2099       O  0.42159886  0.82015882  0.67269307    -0.83600
O2100       O  0.60008973  0.81040192  0.55690684    -0.79300
O2101       O  0.42180760  0.81406989  0.62484957    -0.90900
O2102       O  0.42764852  0.73577314  0.66472357    -0.76900
O2103       O  0.53145936  0.78299390  0.62374189    -0.86400
O2104       O  0.46530335  0.78699408  0.66756739    -0.86100
O2105       O  0.58405111  0.84012744  0.59177634    -0.72800
O2106       O  0.52169644  0.84323522  0.63291721    -0.84900
Zr2107     Zr  0.62555069  0.82691248  0.68388414     2.26400
Zr2108     Zr  0.62253139  0.81448429  0.60595387     2.06300
Zr2109     Zr  0.49573013  0.82155071  0.68948242     2.10000
Zr2110     Zr  0.50445070  0.76189364  0.68006689     1.78800
O2111       O  0.50212147  0.86106157  0.69538959    -0.93700
O2112       O  0.51561877  0.72952820  0.66470479    -0.41600
O2113       O  0.53420361  0.79592225  0.70265534    -0.78200
O2114       O  0.59593788  0.79173034  0.66248850    -0.96900
O2115       O  0.65350180  0.84913790  0.62770166    -0.90200
O2116       O  0.58712926  0.85270169  0.67201162    -0.93000
C2117       C  0.40525724  0.74013173  0.64323554     1.00700
C2118       C  0.40298695  0.81767197  0.64842503     1.13700
C2119       C  0.56101721  0.80671701  0.54582526     1.04400
O2120       O  0.62566831  0.77883059  0.59433653    -0.95200
O2121       O  0.69429281  0.81311014  0.62198327    -0.90900
O2122       O  0.69426148  0.81942367  0.66939977    -0.84100
C2123       C  0.71269779  0.81521598  0.64627474     1.11100
O2124       O  0.59184156  0.89794925  0.57338300    -0.97200
Zr2125     Zr  0.61326810  0.87374170  0.61542326     1.88900
O2126       O  0.69451005  0.87229779  0.67400478    -0.73800
O2127       O  0.70071366  0.85040104  0.56519185    -0.53100
O2128       O  0.68026647  0.89842630  0.56549262    -0.97700
O2129       O  0.60172356  0.90733267  0.62699197    -0.55000
O2130       O  0.69037303  0.89978553  0.63115773    -0.74300
C2131       C  0.71206905  0.89521084  0.65304822     0.98000
O2132       O  0.66068651  0.81620584  0.72822889    -0.63100
O2133       O  0.41825270  0.79161007  0.73353709    -0.57900
O2134       O  0.58758894  0.81794956  0.73886162    -0.94600
O2135       O  0.51307216  0.81769760  0.74154827    -0.93000
O2136       O  0.43750061  0.73699420  0.73005849    -0.93400
O2137       O  0.52689665  0.73744884  0.72110435    -0.92200
C2138       C  0.54742021  0.81567543  0.75416969     1.16900
H2139       H  0.42811623  0.77579039  0.67500889     0.32800
H2140       H  0.61089655  0.78119427  0.66870696     0.43700
H2141       H  0.59776157  0.86538295  0.68286486     0.37200
H2142       H  0.59325081  0.84870189  0.56891851     0.33700
H2143       H  0.48432501  0.71209440  0.67766780     0.25500
H2144       H  0.71335338  0.84137692  0.55511883     0.31400
H2145       H  0.71038631  0.89799515  0.57107047     0.37300
H2146       H  0.45032386  0.74799925  0.74359376     0.31800
H2147       H  0.40429920  0.80251882  0.73671896     0.30600
H2148       H  0.47241731  0.85414393  0.71340803     0.32300
H2149       H  0.63571275  0.92414921  0.61689056     0.31300
H2150       H  0.54466855  0.74974428  0.73250366     0.35300
H2151       H  0.65705182  0.79906789  0.72968642     0.28000
H2152       H  0.44708256  0.81318181  0.55841839     0.32300
H2153       H  0.55942953  0.88405691  0.57060870     0.35100
H2154       H  0.39283672  0.77885883  0.72502775     0.27700
H2155       H  0.69834424  0.82943916  0.72123501     0.40600
H2156       H  0.61420288  0.76495165  0.61548208     0.30600
H2157       H  0.51160467  0.73225167  0.64263495     0.38300
H2158       H  0.59837032  0.90346631  0.65016459     0.30100
H2159       H  0.68855936  0.85856402  0.54868683     0.30200
H2160       H  0.49755093  0.84119563  0.55077271     0.30400
C2161       C  0.84493393  0.68459100  0.65841575    -0.20900
C2162       C  0.84990509  0.70937223  0.65036593    -0.07500
C2163       C  0.80764362  0.71135355  0.64316716     0.13400
C2164       C  0.76190710  0.68857207  0.64412433    -0.20900
C2165       C  0.75703858  0.66381012  0.65199712    -0.07500
C2166       C  0.79939312  0.66188523  0.65905116     0.13400
C2167       C  0.79804376  0.63633153  0.66585731    -0.24300
H2168       H  0.87732991  0.68307617  0.66371128     0.14700
H2169       H  0.72954078  0.69008674  0.63877259     0.14700
C2170       C  0.80959276  0.73714889  0.63533350    -0.24200
H2171       H  0.83598278  0.63911044  0.66818412     0.04900
H2172       H  0.78825400  0.62876154  0.64597455     0.08200
H2173       H  0.76913005  0.62138968  0.68861541     0.08200
H2174       H  0.83852764  0.75164451  0.61239861     0.08100
H2175       H  0.81971169  0.74530013  0.65474760     0.08100
H2176       H  0.77183241  0.73449866  0.63271095     0.04900
C2177       C  0.32095690  0.96276314  0.63107364    -0.20900
C2178       C  0.35886461  0.95857602  0.64153121    -0.07500
C2179       C  0.34781567  0.93222710  0.65342587     0.13400
C2180       C  0.29836056  0.91096301  0.65616647    -0.20900
C2181       C  0.26007037  0.91524112  0.64661083    -0.07500
C2182       C  0.27192676  0.94160093  0.63334282     0.13400
C2183       C  0.23293932  0.94780588  0.62236315    -0.24300
H2184       H  0.32931726  0.98281682  0.62159528     0.14700
H2185       H  0.28980071  0.89081438  0.66531389     0.14700
C2186       C  0.38802127  0.92619147  0.66219180    -0.24200
H2187       H  0.24805053  0.96936509  0.61474517     0.04900
H2188       H  0.19754335  0.93732309  0.64212393     0.08200
H2189       H  0.22329880  0.94183824  0.60143025     0.08200
H2190       H  0.39842965  0.93111986  0.68358681     0.08100
H2191       H  0.42292259  0.93770177  0.64185109     0.08100
H2192       H  0.37372461  0.90479682  0.66795113     0.04900
C2193       C  0.79288625  0.82733307  0.66411684    -0.20900
C2194       C  0.75890836  0.81334000  0.64762845    -0.07500
C2195       C  0.77049436  0.79851386  0.63274107     0.13400
C2196       C  0.81630817  0.79888094  0.63404419    -0.20900
C2197       C  0.85055094  0.81302051  0.65041565    -0.07500
C2198       C  0.83842815  0.82754655  0.66566904     0.13400
C2199       C  0.87339964  0.84404545  0.68296206    -0.24300
H2200       H  0.78404957  0.83854107  0.67570108     0.14700
H2201       H  0.82520050  0.78781396  0.62225482     0.14700
C2202       C  0.73439091  0.78148654  0.61634933    -0.24200
H2203       H  0.85916315  0.85542879  0.69123831     0.04900
H2204       H  0.91265547  0.85860427  0.66680082     0.08200
H2205       H  0.87519735  0.83099461  0.70446884     0.08200
H2206       H  0.73175037  0.79410864  0.59480990     0.08100
H2207       H  0.69552259  0.76721700  0.63308002     0.08100
H2208       H  0.74807098  0.76979058  0.60836542     0.04900
C2209       C  0.31338320  0.80102494  0.67517135    -0.20900
C2210       C  0.35544388  0.81812601  0.64823579    -0.07500
C2211       C  0.35010215  0.83411960  0.62162836     0.13400
C2212       C  0.30259570  0.83222471  0.62256923    -0.20900
C2213       C  0.26067765  0.81518927  0.64953425    -0.07500
C2214       C  0.26572001  0.79893253  0.67595653     0.13400
C2215       C  0.22120602  0.77817599  0.70455671    -0.24300
H2216       H  0.31714305  0.78840713  0.69534363     0.14700
H2217       H  0.29865410  0.84470389  0.60233489     0.14700
C2218       C  0.39389096  0.85413964  0.59240862    -0.24200
H2219       H  0.21604716  0.75849453  0.70789169     0.04900
H2220       H  0.18388681  0.77608561  0.70216732     0.08200
H2221       H  0.22969267  0.78316871  0.72621981     0.08200
H2222       H  0.38440669  0.84825215  0.57137713     0.08100
H2223       H  0.43132576  0.85634915  0.59467835     0.08100
H2224       H  0.39928924  0.87397787  0.58806430     0.04900
C2225       C  0.84921922  0.93909581  0.65903732    -0.20900
C2226       C  0.85513481  0.96416179  0.64926533    -0.07500
C2227       C  0.81285698  0.96610344  0.64211829     0.13400
C2228       C  0.76644023  0.94310444  0.64451691    -0.20900
C2229       C  0.76086478  0.91813890  0.65367618    -0.07500
C2230       C  0.80298627  0.91612552  0.66100462     0.13400
C2231       C  0.80069740  0.89021430  0.66941367    -0.24300
H2232       H  0.88150680  0.93755086  0.66450464     0.14700
H2233       H  0.73416198  0.94465552  0.63902184     0.14700
C2234       C  0.81901309  0.49391168  0.62917346    -0.24200
H2235       H  0.83836270  0.89280129  0.67218912     0.04900
H2236       H  0.79049162  0.88182194  0.65019528     0.08200
H2237       H  0.77166917  0.87596738  0.69236798     0.08200
H2238       H  0.84742996  0.50787232  0.60589286     0.08100
H2239       H  0.83015395  0.50265831  0.64802319     0.08100
H2240       H  0.77773478  0.98945428  0.63018144     0.04900
C2241       C  0.32572379  0.69659769  0.67295056    -0.20900
C2242       C  0.35646532  0.71695754  0.64341999    -0.07500
C2243       C  0.34073301  0.71412133  0.61530574     0.13400
C2244       C  0.29456881  0.69110123  0.61762608    -0.20900
C2245       C  0.26394092  0.67067349  0.64714037    -0.07500
C2246       C  0.27998425  0.67340719  0.67523116     0.13400
C2247       C  0.24908757  0.65241643  0.70776291    -0.24300
H2248       H  0.33763648  0.69882450  0.69454766     0.14700
H2249       H  0.28273620  0.68885581  0.59602052     0.14700
C2250       C  0.37301323  0.73459200  0.58269093    -0.24200
H2251       H  0.26600958  0.65888303  0.72703837     0.04900
H2252       H  0.24858190  0.63407396  0.70913965     0.08200
H2253       H  0.20898793  0.64801617  0.71247153     0.08200
H2254       H  0.41240120  0.73801735  0.57876561     0.08100
H2255       H  0.37537969  0.75349757  0.58050486     0.08100
H2256       H  0.35622295  0.72809295  0.56339728     0.04900
C2257       C  0.82745634  0.55490511  0.62811038    -0.20900
C2258       C  0.85986800  0.56840583  0.64570254    -0.07500
C2259       C  0.84455790  0.58094256  0.66277005     0.13400
C2260       C  0.79725644  0.57900685  0.66219874    -0.20900
C2261       C  0.76518072  0.56572966  0.64437178    -0.07500
C2262       C  0.78026058  0.55304130  0.62749132     0.13400
C2263       C  0.74635859  0.53646114  0.60984936    -0.24300
H2264       H  0.83879611  0.54539065  0.61485514     0.14700
H2265       H  0.78530697  0.58804417  0.67589021     0.14700
C2266       C  0.87789301  0.59708689  0.68096721    -0.24200
H2267       H  0.76272950  0.52631667  0.60048650     0.04900
H2268       H  0.74253933  0.54919846  0.58902975     0.08200
H2269       H  0.70774463  0.52084896  0.62622601     0.08200
H2270       H  0.91664921  0.61290810  0.66491288     0.08100
H2271       H  0.88151659  0.58407361  0.70156626     0.08100
H2272       H  0.86110972  0.60690662  0.69072992     0.04900
C2273       C  0.35211913  0.58126899  0.65335280    -0.20900
C2274       C  0.35238538  0.56069871  0.64562003    -0.07500
C2275       C  0.30897704  0.54265169  0.63734501     0.13400
C2276       C  0.26704360  0.54599895  0.63643911    -0.20900
C2277       C  0.26685897  0.56658819  0.64413411    -0.07500
C2278       C  0.31018213  0.58459615  0.65250639     0.13400
C2279       C  0.31366918  0.60804079  0.65915754    -0.24300
H2280       H  0.38548513  0.59517389  0.65956839     0.14700
H2281       H  0.23361559  0.53211055  0.63024560     0.14700
C2282       C  0.30537451  0.51916919  0.63086286    -0.24200
H2283       H  0.35163781  0.62086135  0.66341524     0.04900
H2284       H  0.28351335  0.60115310  0.68077019     0.08200
H2285       H  0.30873720  0.62037017  0.63845461     0.08200
H2286       H  0.31069653  0.50700511  0.65153610     0.08100
H2287       H  0.33520595  0.52599965  0.60902886     0.08100
H2288       H  0.26709927  0.50625939  0.62706814     0.04900
C2289       C  0.52528119  0.82429153  0.80224660    -0.20900
C2290       C  0.53921918  0.80975452  0.78890470    -0.07500
C2291       C  0.54175284  0.78882922  0.80911558     0.13400
C2292       C  0.53251588  0.78378595  0.84199096    -0.20900
C2293       C  0.52021173  0.79885544  0.85557546    -0.07500
C2294       C  0.51577329  0.81923015  0.83523392     0.13400
C2295       C  0.50008036  0.83547588  0.84770152    -0.24300
H2296       H  0.52223852  0.83991631  0.78661656     0.14700
H2297       H  0.53572556  0.76805297  0.85709067     0.14700
C2298       C  0.55217125  0.77101528  0.79647770    -0.24200
H2299       H  0.49472405  0.84885692  0.82854765     0.04900
H2300       H  0.53052158  0.84823750  0.85767544     0.08200
H2301       H  0.46286522  0.82213342  0.86626254     0.08200
H2302       H  0.59191865  0.78250437  0.78100470     0.08100
H2303       H  0.52392534  0.76221818  0.78274382     0.08100
H2304       H  0.54876534  0.75444423  0.81599140     0.04900
C2305       C  0.52609317  0.91125100  0.01956824    -0.20900
C2306       C  0.54296322  0.93158107  0.99003409    -0.07500
C2307       C  0.55955806  0.92821110  0.96206337     0.13400
C2308       C  0.55913454  0.90493258  0.96454665    -0.20900
C2309       C  0.54226097  0.88465593  0.99406985    -0.07500
C2310       C  0.52537174  0.88790653  0.02201324     0.13400
C2311       C  0.50534433  0.86676630  0.05448037    -0.24300
H2312       H  0.51280987  0.91352382  0.04102303     0.14700
H2313       H  0.57226744  0.90255996  0.94312828     0.14700
C2314       C  0.57833807  0.94894532  0.92945146    -0.24200
H2315       H  0.48976032  0.87177958  0.07305838     0.04900
H2316       H  0.53732262  0.86483367  0.06151030     0.08200
H2317       H  0.47372284  0.84752313  0.05413527     0.08200
H2318       H  0.60966711  0.96847699  0.92925090     0.08100
H2319       H  0.54557513  0.95021184  0.92283599     0.08100
H2320       H  0.59380887  0.94387512  0.91088808     0.04900
C2321       C  0.56988068  0.65075807  0.00638338    -0.20900
C2322       C  0.53288847  0.63249928  0.99494081    -0.07500
C2323       C  0.49292769  0.63614223  0.98635805     0.13400
C2324       C  0.49189772  0.65816015  0.98885729    -0.20900
C2325       C  0.52942605  0.67662545  0.99986166    -0.07500
C2326       C  0.56900000  0.67278690  0.00874698     0.13400
C2327       C  0.61192604  0.69235708  0.01941065    -0.24300
H2328       H  0.60064044  0.64813398  0.01283125     0.14700
H2329       H  0.46140421  0.66095742  0.98222644     0.14700
C2330       C  0.45040618  0.61665247  0.97537573    -0.24200
H2331       H  0.64148634  0.68720135  0.02301488     0.04900
H2332       H  0.59608812  0.69241025  0.04249493     0.08200
H2333       H  0.63161120  0.71255381  0.00107636     0.08200
H2334       H  0.43109812  0.59634264  0.99339586     0.08100
H2335       H  0.46646439  0.61694650  0.95210553     0.08100
H2336       H  0.42052914  0.62161543  0.97204504     0.04900
C2337       C  0.57209767  0.57615080  0.82910666    -0.20900
C2338       C  0.52554997  0.55448528  0.85044849    -0.07500
C2339       C  0.48602227  0.53751498  0.83888904     0.13400
C2340       C  0.49447973  0.54228063  0.80609790    -0.20900
C2341       C  0.54196764  0.56317118  0.78479559    -0.07500
C2342       C  0.58115484  0.58053086  0.79632467     0.13400
C2343       C  0.63208688  0.60378168  0.77426372    -0.24300
H2344       H  0.60223105  0.58904676  0.83831463     0.14700
H2345       H  0.46433253  0.52914498  0.79711068     0.14700
C2346       C  0.43483084  0.51458101  0.86103280    -0.24200
H2347       H  0.65694406  0.61603288  0.78722395     0.04900
H2348       H  0.62528333  0.61669809  0.75546011     0.08200
H2349       H  0.65356430  0.59663148  0.76301636     0.08200
H2350       H  0.42212144  0.01857564  0.87547118     0.08100
H2351       H  0.44862008  0.99795977  0.87602096     0.08100
H2352       H  0.41354354  0.00171854  0.84730422     0.04900
C2353       C  0.82529640  0.68375809  0.96169453    -0.20900
C2354       C  0.83877447  0.68410126  0.99068727    -0.07500
C2355       C  0.80884353  0.66108030  0.01839059     0.13400
C2356       C  0.76590816  0.63853028  0.01638701    -0.20900
C2357       C  0.75237113  0.63816086  0.98742177    -0.07500
C2358       C  0.78241674  0.66114082  0.95967325     0.13400
C2359       C  0.76872127  0.66234407  0.92810549    -0.24300
H2360       H  0.84818872  0.70143537  0.94055075     0.14700
H2361       H  0.74303062  0.62086959  0.03755818     0.14700
C2362       C  0.82284793  0.65969309  0.04990612    -0.24200
H2363       H  0.79443543  0.68240654  0.90961940     0.04900
H2364       H  0.72835631  0.65750666  0.93081141     0.08200
H2365       H  0.77293439  0.64809024  0.91936411     0.08200
H2366       H  0.81871469  0.67381520  0.05899930     0.08100
H2367       H  0.86324053  0.66453840  0.04695437     0.08100
H2368       H  0.79729017  0.63956248  0.06828260     0.04900
C2369       C  0.29753211  0.88613234  0.99287235    -0.20900
C2370       C  0.24864098  0.88184281  0.00374935    -0.07500
C2371       C  0.24590042  0.90226162  0.01090621     0.13400
C2372       C  0.29177324  0.92634655  0.00636463    -0.20900
C2373       C  0.34055140  0.93080891  0.99489675    -0.07500
C2374       C  0.34342836  0.91017725  0.98856024     0.13400
C2375       C  0.39446131  0.91288464  0.97825886    -0.24300
H2376       H  0.29987262  0.87050711  0.98760668     0.14700
H2377       H  0.28948708  0.94202205  0.01152187     0.14700
C2378       C  0.19505842  0.89939397  0.02229170    -0.24200
H2379       H  0.38916063  0.89417292  0.97642298     0.04900
H2380       H  0.41745973  0.91790640  0.99590952     0.08200
H2381       H  0.41635435  0.92858417  0.95442927     0.08200
H2382       H  0.17359946  0.88320057  0.04583966     0.08100
H2383       H  0.17161493  0.89501549  0.00471800     0.08100
H2384       H  0.20052101  0.91781150  0.02527336     0.04900
C2385       C  0.07583658  0.83294909  0.79927838    -0.20900
C2386       C  0.04008992  0.81290034  0.78955508    -0.07500
C2387       C  0.99954230  0.78872456  0.81265162     0.13400
C2388       C  0.99557561  0.78523231  0.84505938    -0.20900
C2389       C  0.03103774  0.80530430  0.85498155    -0.07500
C2390       C  0.07167893  0.82956715  0.83175632     0.13400
C2391       C  0.11196773  0.85154301  0.84090411    -0.24300
H2392       H  0.10711950  0.85130567  0.78134407     0.14700
H2393       H  0.96489637  0.76655708  0.86283065     0.14700
C2394       C  0.96180088  0.76609114  0.80327646    -0.24200
H2395       H  0.14252321  0.86827675  0.81970596     0.04900
H2396       H  0.13084298  0.84388082  0.85679820     0.08200
H2397       H  0.09368358  0.85956706  0.85319770     0.08200
H2398       H  0.98305626  0.76058073  0.78868395     0.08100
H2399       H  0.93885840  0.77199899  0.78937061     0.08100
H2400       H  0.93430961  0.74818543  0.82444724     0.04900
C2401       C  0.77689601  0.89880800  0.96736817    -0.20900
C2402       C  0.74077026  0.88163372  0.99698716    -0.07500
C2403       C  0.74953138  0.88908279  0.02418086     0.13400
C2404       C  0.79367264  0.91343672  0.02083231    -0.20900
C2405       C  0.82985184  0.93065546  0.99122132    -0.07500
C2406       C  0.82115200  0.92315447  0.96403183     0.13400
C2407       C  0.85713464  0.94078143  0.93121898    -0.24300
H2408       H  0.77009530  0.89332992  0.94641757     0.14700
H2409       H  0.80034908  0.91884957  0.04182968     0.14700
C2410       C  0.71382835  0.87130554  0.05706760    -0.24200
H2411       H  0.84198961  0.93245253  0.91263996     0.04900
H2412       H  0.89520814  0.94282686  0.93046709     0.08200
H2413       H  0.86202358  0.96063399  0.92491381     0.08200
H2414       H  0.70904125  0.85148225  0.06313936     0.08100
H2415       H  0.67566079  0.86918740  0.05813257     0.08100
H2416       H  0.72917796  0.87953806  0.07567120     0.04900
C2417       C  0.26883947  0.65306698  0.96830507    -0.20900
C2418       C  0.23649666  0.63346346  0.99794932    -0.07500
C2419       C  0.24872052  0.63786497  0.02628991     0.13400
C2420       C  0.29287588  0.66183045  0.02410849    -0.20900
C2421       C  0.32572358  0.68126365  0.99442708    -0.07500
C2422       C  0.31343913  0.67680091  0.96610280     0.13400
C2423       C  0.34628018  0.69704087  0.93346917    -0.24300
H2424       H  0.25909848  0.64977777  0.94660043     0.14700
H2425       H  0.30260403  0.66512100  0.04581162     0.14700
C2426       C  0.21698581  0.61704823  0.05880930    -0.24200
H2427       H  0.32856295  0.69093703  0.91424316     0.04900
H2428       H  0.38471220  0.69938335  0.92915482     0.08200
H2429       H  0.35100230  0.71642867  0.93155742     0.08200
H2430       H  0.21426647  0.59818510  0.06007062     0.08100
H2431       H  0.17766662  0.61361583  0.06361196     0.08100
H2432       H  0.23448751  0.62320269  0.07807260     0.04900
C2433       C  0.04679149  0.90174522  0.96806291    -0.20900
C2434       C  0.04740918  0.88587738  0.99677712    -0.07500
C2435       C  0.04442929  0.89280834  0.02427168     0.13400
C2436       C  0.04026589  0.91480291  0.02220856    -0.20900
C2437       C  0.03879404  0.93040981  0.99361985    -0.07500
C2438       C  0.04239354  0.92364997  0.96603575     0.13400
C2439       C  0.04262701  0.93935337  0.93403968    -0.24300
H2440       H  0.04975392  0.89701384  0.94668670     0.14700
H2441       H  0.03746181  0.91960595  0.04354198     0.14700
C2442       C  0.04412810  0.87702750  0.05626939    -0.24200
H2443       H  0.04780643  0.93167986  0.91511757     0.04900
H2444       H  0.07518429  0.96031062  0.92670778     0.08200
H2445       H  0.00510315  0.93799999  0.93534162     0.08200
H2446       H  0.08088734  0.87755774  0.05485566     0.08100
H2447       H  0.01068055  0.85627126  0.06395276     0.08100
H2448       H  0.04039166  0.88513687  0.07501473     0.04900
C2449       C  0.06961618  0.67452474  0.00604867    -0.20900
C2450       C  0.03093803  0.67825961  0.99616726    -0.07500
C2451       C  0.99357622  0.65938424  0.98507993     0.13400
C2452       C  0.99625259  0.63745684  0.98407032    -0.20900
C2453       C  0.03483978  0.63365367  0.99414952    -0.07500
C2454       C  0.07229946  0.65264120  0.00510961     0.13400
C2455       C  0.11643710  0.65065428  0.01485703    -0.24300
H2456       H  0.09851225  0.68910402  0.01420052     0.14700
H2457       H  0.96746868  0.62292891  0.97581085     0.14700
C2458       C  0.94964567  0.66158544  0.97540723    -0.24200
H2459       H  0.14427506  0.66843100  0.02000531     0.04900
H2460       H  0.13794632  0.64895402  0.99534014     0.08200
H2461       H  0.10161298  0.63318246  0.03689303     0.08200
H2462       H  0.96471411  0.67936941  0.95375890     0.08100
H2463       H  0.92790622  0.66295034  0.99516037     0.08100
H2464       H  0.92206113  0.64405844  0.96974001     0.04900
C2465       C  0.03995952  0.53850898  0.83834925    -0.20900
C2466       C  0.02399468  0.55231768  0.85202235    -0.07500
C2467       C  0.01800566  0.57205272  0.83172173     0.13400
C2468       C  0.02943874  0.57771077  0.79858009    -0.20900
C2469       C  0.04691228  0.56435572  0.78512468    -0.07500
C2470       C  0.05118289  0.54410498  0.80542626     0.13400
C2471       C  0.06554152  0.52746427  0.79287737    -0.24300
H2472       H  0.04448808  0.52331297  0.85345038     0.14700
H2473       H  0.02476812  0.59271340  0.78299086     0.14700
C2474       C  0.99826372  0.58673320  0.84453648    -0.24200
H2475       H  0.06231811  0.51098191  0.81243869     0.04900
H2476       H  0.10611994  0.53990640  0.77855495     0.08200
H2477       H  0.03948241  0.51855698  0.77811176     0.08200
H2478       H  0.02684853  0.59977279  0.85520763     0.08100
H2479       H  0.96082774  0.57233222  0.86269116     0.08100
H2480       H  0.99183758  0.59962507  0.82542981     0.04900
C2481       C  0.60671595  0.81505325  0.45962472    -0.20900
C2482       C  0.56094133  0.79605258  0.45484014    -0.07500
C2483       C  0.51527116  0.78088018  0.47993648     0.13400
C2484       C  0.51649649  0.78524172  0.50901934    -0.20900
C2485       C  0.56227411  0.80408575  0.51397257    -0.07500
C2486       C  0.60812788  0.81931288  0.48880397     0.13400
C2487       C  0.65852949  0.84042595  0.49206308    -0.24300
H2488       H  0.64168480  0.82657697  0.44037483     0.14700
H2489       H  0.48159582  0.77342313  0.52830702     0.14700
C2490       C  0.46542210  0.75944742  0.47674691    -0.24200
H2491       H  0.68890070  0.85163629  0.46919708     0.04900
H2492       H  0.67307348  0.83117625  0.50973568     0.08200
H2493       H  0.65296114  0.85485612  0.49956189     0.08200
H2494       H  0.47170366  0.74537834  0.46880047     0.08100
H2495       H  0.45063732  0.76869403  0.45938839     0.08100
H2496       H  0.43518910  0.74789391  0.49969037     0.04900
C2497       C  0.57403433  0.74454455  0.18412840    -0.20900
C2498       C  0.58705551  0.76652396  0.19313615    -0.07500
C2499       C  0.60487953  0.79137445  0.16985294     0.13400
C2500       C  0.60536241  0.79323452  0.13812280    -0.20900
C2501       C  0.58755232  0.77070079  0.12906041    -0.07500
C2502       C  0.57379036  0.74614684  0.15239218     0.13400
C2503       C  0.55638588  0.72110623  0.14500890    -0.24300
H2504       H  0.56111339  0.72566876  0.20239153     0.14700
H2505       H  0.61783733  0.81233513  0.12058277     0.14700
C2506       C  0.62289483  0.81591230  0.17857001    -0.24200
H2507       H  0.54847761  0.70430480  0.16617492     0.04900
H2508       H  0.58695215  0.72435018  0.12611644     0.08200
H2509       H  0.51999292  0.71502705  0.13742345     0.08200
H2510       H  0.65503080  0.81929328  0.19018138     0.08100
H2511       H  0.59066534  0.81349523  0.19520044     0.08100
H2512       H  0.63707131  0.83388933  0.15726168     0.04900
C2513       C  0.50823249  0.52800050  0.50941170    -0.20900
C2514       C  0.55621569  0.54371532  0.51519073    -0.07500
C2515       C  0.60197123  0.55563775  0.49080731     0.13400
C2516       C  0.59822956  0.55123722  0.46184950    -0.20900
C2517       C  0.55034883  0.53551800  0.45615591    -0.07500
C2518       C  0.50461219  0.52378564  0.48030394     0.13400
C2519       C  0.45189545  0.50633511  0.47614172    -0.24300
H2520       H  0.47310667  0.51872847  0.52794217     0.14700
H2521       H  0.63323636  0.56042510  0.44323881     0.14700
C2522       C  0.65500941  0.57367145  0.49431575    -0.24200
H2523       H  0.42101296  0.49736662  0.49833858     0.04900
H2524       H  0.45033232  0.48988730  0.46955314     0.08200
H2525       H  0.44348299  0.51845048  0.45752491     0.08200
H2526       H  0.66464398  0.56231157  0.51314677     0.08100
H2527       H  0.65633065  0.59031947  0.50022334     0.08100
H2528       H  0.67584762  0.09410566  0.46684314     0.04900
C2529       C  0.60216436  0.92100418  0.31488652    -0.20900
C2530       C  0.55407843  0.91832254  0.31496083    -0.07500
C2531       C  0.51103071  0.89383181  0.31671651     0.13400
C2532       C  0.51677511  0.87228613  0.31988774    -0.20900
C2533       C  0.56456094  0.87478163  0.32062882    -0.07500
C2534       C  0.60790380  0.89944315  0.31817380     0.13400
C2535       C  0.65983835  0.90350219  0.32076425    -0.24300
H2536       H  0.63500699  0.93974682  0.31392803     0.14700
H2537       H  0.48383112  0.85347510  0.32111223     0.14700
C2538       C  0.45916525  0.88989257  0.31421834    -0.24200
H2539       H  0.67142698  0.91150038  0.34013732     0.04900
H2540       H  0.68920200  0.91799791  0.29795694     0.08200
H2541       H  0.65993366  0.88496939  0.32663927     0.08200
H2542       H  0.45927249  0.90848538  0.30882722     0.08100
H2543       H  0.42964412  0.87512728  0.33687092     0.08100
H2544       H  0.44777927  0.88230386  0.29452860     0.04900
C2545       C  0.56900315  0.63927829  0.30321094    -0.20900
C2546       C  0.54825503  0.61779860  0.33210754    -0.07500
C2547       C  0.52788866  0.61963457  0.36013238     0.13400
C2548       C  0.52953735  0.64303215  0.35841850    -0.20900
C2549       C  0.55127854  0.66472820  0.32962228    -0.07500
C2550       C  0.57121804  0.66274171  0.30150737     0.13400
C2551       C  0.59424105  0.68481915  0.26941850    -0.24300
H2552       H  0.58395216  0.63777146  0.28159732     0.14700
H2553       H  0.51456852  0.64455269  0.38000529     0.14700
C2554       C  0.50597051  0.59760608  0.39211317    -0.24200
H2555       H  0.60430461  0.67876274  0.25000520     0.04900
H2556       H  0.63049717  0.70226188  0.26971071     0.08200
H2557       H  0.56612259  0.69053775  0.26339503     0.08200
H2558       H  0.53526599  0.59275719  0.39802043     0.08100
H2559       H  0.47076976  0.57969699  0.39170011     0.08100
H2560       H  0.49469250  0.60328629  0.41155324     0.04900
C2561       C  0.61687201  0.53416763  0.16703914    -0.20900
C2562       C  0.56616953  0.01164558  0.18985382    -0.07500
C2563       C  0.52945762  0.99237801  0.17924366     0.13400
C2564       C  0.53756559  0.99664319  0.14650622    -0.20900
C2565       C  0.58693050  0.52019149  0.12328050    -0.07500
C2566       C  0.62450876  0.53890664  0.13419433     0.13400
C2567       C  0.67258606  0.56369355  0.11137544    -0.24300
H2568       H  0.64477889  0.54874979  0.17564404     0.14700
H2569       H  0.50870269  0.98234512  0.13801415     0.14700
C2570       C  0.48215541  0.96737725  0.20236944    -0.24200
H2571       H  0.69890254  0.57546085  0.12418456     0.04900
H2572       H  0.66233136  0.57657041  0.09541800     0.08200
H2573       H  0.69387997  0.55820078  0.09679136     0.08200
H2574       H  0.45804590  0.97241297  0.21532441     0.08100
H2575       H  0.49401557  0.95621626  0.21981538     0.08100
H2576       H  0.45803381  0.95419450  0.19001192     0.04900
C2577       C  0.10014929  0.81105059  0.49797019    -0.20900
C2578       C  0.05285215  0.79415474  0.52127119    -0.07500
C2579       C  0.00920427  0.77559618  0.51379227     0.13400
C2580       C  0.01389146  0.77476626  0.48292555    -0.20900
C2581       C  0.06137753  0.79134549  0.45982056    -0.07500
C2582       C  0.10512632  0.80975141  0.46734657     0.13400
C2583       C  0.15669754  0.82838219  0.44315392    -0.24300
H2584       H  0.13348011  0.82535274  0.50381067     0.14700
H2585       H  0.98065303  0.76040823  0.47708081     0.14700
C2586       C  0.95856410  0.75568204  0.53854057    -0.24200
H2587       H  0.18562283  0.84252495  0.45268329     0.04900
H2588       H  0.15231155  0.84011098  0.42155736     0.08200
H2589       H  0.17224106  0.81695885  0.43650259     0.08200
H2590       H  0.94142446  0.76596509  0.54666510     0.08100
H2591       H  0.96491681  0.74406523  0.55921902     0.08100
H2592       H  0.92998569  0.74145831  0.52893879     0.04900
C2593       C  0.80481105  0.74127881  0.33485766    -0.20900
C2594       C  0.84727056  0.76190935  0.34031404    -0.07500
C2595       C  0.84299922  0.78231657  0.34639974     0.13400
C2596       C  0.79665448  0.78157787  0.34652263    -0.20900
C2597       C  0.75479229  0.76140116  0.34013532    -0.07500
C2598       C  0.75862046  0.74074493  0.33461701     0.13400
C2599       C  0.71402546  0.71780076  0.32912281    -0.24300
H2600       H  0.80788846  0.72550979  0.33064198     0.14700
H2601       H  0.79364071  0.79740164  0.35062465     0.14700
C2602       C  0.88768400  0.80570020  0.35121487    -0.24200
H2603       H  0.72273503  0.70258835  0.32761879     0.04900
H2604       H  0.70557937  0.72488846  0.30632148     0.08200
H2605       H  0.67919231  0.70802799  0.34911250     0.08200
H2606       H  0.92189197  0.81573975  0.33069315     0.08100
H2607       H  0.89741410  0.79900741  0.37365125     0.08100
H2608       H  0.87838826  0.82064749  0.35307449     0.04900
C2609       C  0.27166865  0.75356555  0.31773864    -0.20900
C2610       C  0.26554990  0.77087282  0.33011756    -0.07500
C2611       C  0.30732256  0.78919565  0.33931624     0.13400
C2612       C  0.35327481  0.78928446  0.33640584    -0.20900
C2613       C  0.35899694  0.77157396  0.32467322    -0.07500
C2614       C  0.31748188  0.75351092  0.31503614     0.13400
C2615       C  0.32004779  0.73344635  0.30294247    -0.24300
H2616       H  0.23991855  0.73960173  0.31055409     0.14700
H2617       H  0.38518697  0.80341266  0.34337891     0.14700
C2618       C  0.30476665  0.80930368  0.35130043    -0.24200
H2619       H  0.28284516  0.71994333  0.29844294     0.04900
H2620       H  0.32903444  0.72103219  0.32085877     0.08200
H2621       H  0.35005901  0.74375001  0.28005793     0.08200
H2622       H  0.27530371  0.79912404  0.37440839     0.08100
H2623       H  0.29516413  0.82142133  0.33345368     0.08100
H2624       H  0.34221335  0.82308539  0.35531609     0.04900
C2625       C  0.02646068  0.73686535  0.19228170    -0.20900
C2626       C  0.06464351  0.75673801  0.20109820    -0.07500
C2627       C  0.10661026  0.77979109  0.17719044     0.13400
C2628       C  0.10839856  0.78270689  0.14492875    -0.20900
C2629       C  0.06968479  0.76299184  0.13599976    -0.07500
C2630       C  0.02855273  0.73955001  0.16011120     0.13400
C2631       C  0.98527667  0.71780300  0.15226581    -0.24300
H2632       H  0.99429692  0.71930318  0.21075543     0.14700
H2633       H  0.13964468  0.80072436  0.12652174     0.14700
C2634       C  0.14802408  0.80197101  0.18551465    -0.24200
H2635       H  0.95493071  0.70179570  0.17402800     0.04900
H2636       H  0.00074072  0.70863281  0.14007635     0.08200
H2637       H  0.96676519  0.72602945  0.13674479     0.08200
H2638       H  0.16905305  0.79472242  0.19973353     0.08100
H2639       H  0.13028630  0.80934287  0.19949235     0.08100
H2640       H  0.17673424  0.81896323  0.16386418     0.04900
C2641       C  0.03787616  0.55699382  0.49511658    -0.20900
C2642       C  0.05493801  0.54458251  0.51769883    -0.07500
C2643       C  0.07066439  0.52803623  0.51063684     0.13400
C2644       C  0.06951086  0.52467181  0.48106200    -0.20900
C2645       C  0.05356680  0.53750683  0.45815345    -0.07500
C2646       C  0.03732773  0.55388890  0.46529293     0.13400
C2647       C  0.01048643  0.06558746  0.44421617    -0.24300
H2648       H  0.02606803  0.56973582  0.50057573     0.14700
H2649       H  0.08104116  0.51176801  0.47581852     0.14700
C2650       C  0.08763653  0.51331671  0.53424312    -0.24200
H2651       H  0.99957688  0.07744001  0.45416804     0.04900
H2652       H  0.97487914  0.04975846  0.44085737     0.08200
H2653       H  0.03894167  0.07903509  0.42077150     0.08200
H2654       H  0.05742046  0.50123327  0.55717350     0.08100
H2655       H  0.12456920  0.52760552  0.53817818     0.08100
H2656       H  0.09434338  0.49966907  0.52552973     0.04900
C2657       C  0.05844463  0.88448705  0.30289713    -0.20900
C2658       C  0.05666504  0.86775616  0.33159212    -0.07500
C2659       C  0.05339871  0.87353456  0.35981837     0.13400
C2660       C  0.05162498  0.89595812  0.35855259    -0.20900
C2661       C  0.05275176  0.91254210  0.32992489    -0.07500
C2662       C  0.05594482  0.90671408  0.30172949     0.13400
C2663       C  0.05426167  0.92299269  0.27077772    -0.24300
H2664       H  0.06044340  0.87971613  0.28144374     0.14700
H2665       H  0.04937465  0.90061549  0.38007339     0.14700
C2666       C  0.05303511  0.85661821  0.39109730    -0.24200
H2667       H  0.05337881  0.91432235  0.25190467     0.04900
H2668       H  0.08907836  0.94340427  0.26192524     0.08200
H2669       H  0.01898229  0.92383842  0.27442949     0.08200
H2670       H  0.08739394  0.85493696  0.38808634     0.08100
H2671       H  0.01731330  0.83652686  0.39959157     0.08100
H2672       H  0.05402837  0.86526346  0.41000887     0.04900
C2673       C  0.00429530  0.63654376  0.34647282    -0.20900
C2674       C  0.05185265  0.66031209  0.33962002    -0.07500
C2675       C  0.09836291  0.66111305  0.33204157     0.13400
C2676       C  0.09593008  0.63805639  0.33118052    -0.20900
C2677       C  0.04836600  0.61432747  0.33753030    -0.07500
C2678       C  0.00178837  0.61354066  0.34523204     0.13400
C2679       C  0.94940223  0.58905886  0.35081933    -0.24300
H2680       H  0.96883900  0.63618034  0.35205974     0.14700
H2681       H  0.13150813  0.63853110  0.32561730     0.14700
C2682       C  0.15058477  0.68588295  0.32566565    -0.24200
H2683       H  0.91786735  0.59288432  0.35409459     0.04900
H2684       H  0.94150692  0.57288241  0.37273689     0.08200
H2685       H  0.94790395  0.58243177  0.33000133     0.08200
H2686       H  0.15249427  0.69295953  0.34611893     0.08100
H2687       H  0.15756448  0.70165176  0.30358058     0.08100
H2688       H  0.18238380  0.68226270  0.32227436     0.04900
C2689       C  0.75527747  0.00067261  0.35988233    -0.20900
C2690       C  0.74775463  0.01084811  0.33024160    -0.07500
C2691       C  0.79180740  0.52311007  0.30004285     0.13400
C2692       C  0.83624013  0.52241589  0.30254206    -0.20900
C2693       C  0.84402827  0.51285525  0.33222850    -0.07500
C2694       C  0.80028397  0.00037005  0.36218446     0.13400
C2695       C  0.80558099  0.98888666  0.39467153    -0.24300
H2696       H  0.72562755  0.99284125  0.38147808     0.14700
H2697       H  0.86586521  0.52999747  0.28102555     0.14700
C2698       C  0.78825775  0.53542126  0.26736474    -0.24200
H2699       H  0.77014641  0.98032781  0.41368878     0.04900
H2700       H  0.83792834  0.00472855  0.40037193     0.08200
H2701       H  0.81268273  0.97281058  0.39519581     0.08200
H2702       H  0.78373137  0.55225193  0.26694020     0.08100
H2703       H  0.75537112  0.52032921  0.26109516     0.08100
H2704       H  0.82362304  0.54339269  0.24860273     0.04900
C2705       C  0.25734104  0.00036802  0.35317629    -0.20900
C2706       C  0.25486034  0.01789063  0.32731464    -0.07500
C2707       C  0.29791444  0.53329496  0.30117982     0.13400
C2708       C  0.34325803  0.53282843  0.30042318    -0.20900
C2709       C  0.34636249  0.01759865  0.32745578    -0.07500
C2710       C  0.30238118  0.99984661  0.35353438     0.13400
C2711       C  0.30187675  0.97965627  0.38126492    -0.24300
H2712       H  0.22344478  0.98670503  0.37304552     0.14700
H2713       H  0.37625132  0.54624105  0.27995443     0.14700
C2714       C  0.29673107  0.55316344  0.27387600    -0.24200
H2715       H  0.26300992  0.96609311  0.39819957     0.04900
H2716       H  0.32901173  0.98986661  0.39465513     0.08200
H2717       H  0.31304680  0.96738713  0.37252603     0.08200
H2718       H  0.28727413  0.56584033  0.28297060     0.08100
H2719       H  0.26744969  0.54275507  0.26162760     0.08100
H2720       H  0.33460020  0.56634594  0.25587968     0.04900
C2721       C  0.02794554  0.99013860  0.18583203    -0.20900
C2722       C  0.06296237  0.01112687  0.19442579    -0.07500
C2723       C  0.10951691  0.53328520  0.17008529     0.13400
C2724       C  0.11113417  0.53588636  0.13794048    -0.20900
C2725       C  0.06991870  0.51714648  0.12939223    -0.07500
C2726       C  0.02614385  0.49525896  0.15339372     0.13400
C2727       C  0.97953182  0.47537292  0.14549875    -0.24300
H2728       H  0.99719621  0.97200260  0.20436064     0.14700
H2729       H  0.14404734  0.55291440  0.11935291     0.14700
C2730       C  0.15331707  0.55458022  0.17820466    -0.24200
H2731       H  0.96156209  0.95295124  0.16789739     0.04900
H2732       H  0.99027001  0.46448995  0.13354707     0.08200
H2733       H  0.97065021  0.97606909  0.13043609     0.08200
H2734       H  0.17181553  0.54595584  0.19309501     0.08100
H2735       H  0.11884410  0.06429051  0.19268828     0.08100
H2736       H  0.18350707  0.57073461  0.15646874     0.04900
loop_ 
_geom_bond_atom_site_label_1 
_geom_bond_atom_site_label_2 
_geom_bond_distance 
_geom_bond_site_symmetry_2 
_ccdc_geom_bond_type 
Zr1           O3   2.403   1_655  S
Zr1           O4   2.424   1_655  S
Zr1           O7   2.422       .  S
Zr1           O9   2.382   1_655  S
Zr1          O10   2.381   1_655  S
Zr1        O1379   2.393   1_645  S
Zr1        O1380   2.392   1_545  S
Zr1        O1370   2.438   1_545  S
O2        Zr1369   2.438       .  S
O2           H58   0.990       .  S
O2           H66   0.990       .  S
O3           C23   1.279       .  A
O4           C25   1.282       .  A
O5          Zr15   2.428       .  S
O5         C1392   1.284       .  A
O6          Zr14   2.425       .  S
O6           C25   1.284       .  A
O7           C24   1.283       .  A
O8          Zr16   2.412       .  S
O8           C23   1.281       .  A
O9          Zr14   2.385       .  S
O9          Zr16   2.374       .  S
O10         Zr16   2.371       .  S
O10       Zr1383   2.381   1_455  S
O10          H45   0.966   1_455  S
O11         Zr31   2.387   1_455  S
O11       Zr1369   2.397   1_455  S
O11       Zr1382   2.397       .  S
O11          H48   0.966       .  S
O12         Zr15   2.386       .  S
O12         Zr31   2.386       .  S
O12       Zr1369   2.390       .  S
Zr13         O32   2.431       .  S
Zr13         O40   2.439       .  S
Zr13         O28   2.427       .  S
Zr13         O21   2.379       .  S
Zr13         O22   2.383       .  S
Zr13       O1387   2.397       .  S
Zr13       O1388   2.407       .  S
Zr13       O1406   2.442       .  S
Zr14         O27   2.426       .  S
Zr14         O20   2.397       .  S
Zr14       O1379   2.395   1_545  S
Zr14       O1389   2.386   1_545  S
Zr14         O26   2.436       .  S
Zr14       O1401   2.436   1_545  S
Zr15         O41   2.408   1_655  S
Zr15         O22   2.390   1_655  S
Zr15       O1378   2.382   1_655  S
Zr15       O1387   2.396   1_655  S
Zr15         O17   2.436       .  S
Zr15       O1407   2.439       .  S
Zr16         O19   2.384       .  S
Zr16         O20   2.393       .  S
Zr16         O42   2.435       .  S
Zr16         O43   2.435       .  S
Zr16         O18   2.436       .  S
O17          H54   0.990       .  S
O18          H49   0.990       .  S
O18          H63   0.990       .  S
O19       Zr1381   2.393       .  S
O19       Zr1383   2.397   1_455  S
O20       Zr1381   2.402       .  S
O20          H46   0.966       .  S
O21         Zr31   2.381   1_455  S
O21       Zr1382   2.387       .  S
O22         Zr31   2.388   1_455  S
O22          H47   0.966   1_455  S
C23        C1309   1.464       .  S
C24        O1373   1.285       .  A
C24        C1325   1.481       .  S
C25        C1277   1.484       .  S
O26          H62   0.990       .  S
O27        C1397   1.283       .  A
O28          C29   1.282       .  A
C29        O1395   1.284       .  A
C29        C1338   1.475       .  S
O30         Zr31   2.439       .  S
O30          H59   0.990       .  S
Zr31         O36   2.393   1_655  S
Zr31         O34   2.437       .  S
Zr31         O35   2.439       .  S
O32          C37   1.282       .  A
O33       Zr1382   2.436       .  S
O33          H50   0.990       .  S
O33          H65   0.990       .  S
O34          H51   0.990   1_655  S
O35          H55   0.990       .  S
O35          H64   0.989       .  S
O36          C37   1.277       .  A
C37        C1293   1.468       .  S
O38       Zr1381   2.443       .  S
O38          H57   0.990   1_545  S
O38          H61   0.990       .  S
O39       Zr1383   2.440       .  S
O39          H53   0.990       .  S
O39          H60   0.990       .  S
O40          C44   1.282       .  A
O41          C44   1.280       .  A
O42          H52   0.990       .  S
O43          H56   0.990       .  S
C44        C1354   1.470       .  S
Zr67         O69   2.410   1_655  S
Zr67         O70   2.410   1_655  S
Zr67         O73   2.404       .  S
Zr67         O75   2.378   1_655  S
Zr67         O76   2.379   1_655  S
Zr67         O77   2.396   1_655  S
Zr67         O78   2.394       .  S
Zr67         O68   2.440       .  S
O68         H124   0.991       .  S
O68         H132   0.990       .  S
O69          C89   1.279       .  A
O70          C91   1.280       .  A
O71         Zr81   2.442       .  S
O71          C90   1.286       .  A
O72         Zr80   2.430       .  S
O72          C91   1.283       .  A
O73          C90   1.279       .  A
O74         Zr82   2.414       .  S
O74          C89   1.280       .  A
O75         Zr80   2.386       .  S
O75         Zr82   2.374       .  S
O76         Zr81   2.387   1_455  S
O76         Zr82   2.374       .  S
O76         H111   0.966   1_455  S
O77         Zr80   2.399       .  S
O77         Zr97   2.388   1_455  S
O77         H114   0.966       .  S
O78         Zr81   2.390       .  S
O78         Zr97   2.392       .  S
Zr79         O98   2.414       .  S
Zr79        O106   2.439       .  S
Zr79         O94   2.433       .  S
Zr79         O85   2.391       .  S
Zr79         O86   2.404       .  S
Zr79         O87   2.379       .  S
Zr79         O88   2.392       .  S
Zr79        O104   2.442       .  S
Zr80         O93   2.434       .  S
Zr80         O86   2.397       .  S
Zr80         O87   2.390       .  S
Zr80         O99   2.437       .  S
Zr80         O92   2.434       .  S
Zr81        O107   2.431   1_655  S
Zr81         O85   2.396   1_655  S
Zr81         O88   2.393   1_655  S
Zr81         O83   2.435       .  S
Zr81        O105   2.438       .  S
Zr82         O85   2.380       .  S
Zr82         O86   2.398       .  S
Zr82        O108   2.435       .  S
Zr82        O109   2.435       .  S
Zr82         O84   2.436       .  S
O83         H120   0.990       .  S
O84         H115   0.990       .  S
O84         H129   0.990       .  S
O86         H112   0.966       .  S
O87         Zr97   2.379   1_455  S
O88         Zr97   2.392   1_455  S
O88         H113   0.966   1_455  S
C89        C1290   1.467       .  S
C90        C1226   1.480       .  S
C91        C1213   1.474       .  S
O92         H128   0.990       .  S
O93          C95   1.284       .  A
O94          C95   1.284       .  A
C95        C1242   1.494       .  S
O96         Zr97   2.440       .  S
O96         H125   0.990       .  S
Zr97        O102   2.401   1_655  S
Zr97        O100   2.437   1_655  S
Zr97        O101   2.438       .  S
O98         C103   1.279       .  A
O99         H116   0.990       .  S
O99         H131   0.990       .  S
O100        H117   0.990       .  S
O101        H121   0.991       .  S
O101        H130   0.990       .  S
O102        C103   1.277       .  A
C103       C1306   1.460       .  S
O104        H123   0.990       .  S
O104        H127   0.990       .  S
O105        H119   0.990       .  S
O105        H126   0.990       .  S
O106        C110   1.283       .  A
O107        C110   1.284       .  A
O108        H118   0.990       .  S
O109        H122   0.990       .  S
C110       C1258   1.477       .  S
Zr133       O135   2.427       .  S
Zr133       O136   2.431       .  S
Zr133       O139   2.425       .  S
Zr133       O141   2.381       .  S
Zr133       O142   2.382       .  S
Zr133      O1511   2.402   1_545  S
Zr133      O1512   2.398   1_545  S
Zr133      O1502   2.434       .  S
O134      Zr1501   2.428       .  S
O134        H190   0.989       .  S
O134        H198   0.989       .  S
O135        C155   1.282       .  A
O136        C157   1.282       .  A
O137       Zr147   2.440       .  S
O137       C1524   1.287       .  A
O138       Zr146   2.414       .  S
O138        C157   1.282       .  A
O139        C156   1.283       .  A
O140       Zr148   2.401       .  S
O140        C155   1.279       .  A
O141       Zr146   2.392       .  S
O141       Zr148   2.376       .  S
O142       Zr148   2.379       .  S
O142      Zr1515   2.384       .  S
O142        H177   0.966       .  S
O143       Zr163   2.389       .  S
O143      Zr1501   2.398       .  S
O143      Zr1514   2.395       .  S
O143        H180   0.966       .  S
O144       Zr147   2.388       .  S
O144       Zr163   2.386       .  S
O144      Zr1501   2.391       .  S
Zr145       O164   2.413       .  S
Zr145       O172   2.414       .  S
Zr145       O160   2.419       .  S
Zr145       O153   2.378       .  S
Zr145       O154   2.382       .  S
Zr145      O1519   2.394       .  S
Zr145      O1520   2.394       .  S
Zr145      O1538   2.443       .  S
Zr146       O159   2.424       .  S
Zr146       O152   2.389       .  S
Zr146      O1511   2.396   1_545  S
Zr146      O1521   2.379   1_545  S
Zr146       O158   2.434       .  S
Zr146      O1533   2.435   1_545  S
Zr147       O173   2.433       .  S
Zr147       O154   2.384       .  S
Zr147      O1510   2.382       .  S
Zr147      O1519   2.393       .  S
Zr147       O149   2.434       .  S
Zr147      O1539   2.435       .  S
Zr148       O151   2.391       .  S
Zr148       O152   2.384       .  S
Zr148       O174   2.435       .  S
Zr148       O175   2.436       .  S
Zr148       O150   2.437       .  S
O149        H186   0.990       .  S
O150        H181   0.990       .  S
O150        H195   0.990       .  S
O151      Zr1513   2.396       .  S
O151      Zr1515   2.395       .  S
O152      Zr1513   2.391       .  S
O152        H178   0.966       .  S
O153       Zr163   2.375       .  S
O153      Zr1514   2.379       .  S
O154       Zr163   2.379       .  S
O154        H179   0.966       .  S
C155       C1178   1.476       .  S
C156       O1505   1.285       .  A
C156       C2709   1.477       .  S
C157       C1149   1.469       .  S
O158        H194   0.989       .  S
O159       C1529   1.284       .  A
O160        C161   1.282       .  A
C161       O1527   1.286       .  A
C161       C1322   1.483       .  S
O162       Zr163   2.440       .  S
O162        H191   0.990       .  S
Zr163       O168   2.407       .  S
Zr163       O166   2.439       .  S
Zr163       O167   2.439       .  S
O164        C169   1.281       .  A
O165      Zr1514   2.435       .  S
O165        H182   0.990       .  S
O165        H197   0.990       .  S
O166        H183   0.990       .  S
O167        H187   0.990       .  S
O167        H196   0.989       .  S
O168        C169   1.280       .  A
C169       C1162   1.459       .  S
O170      Zr1513   2.438       .  S
O170        H189   0.990       .  S
O170        H193   0.990       .  S
O171      Zr1515   2.436       .  S
O171        H185   0.990       .  S
O171        H192   0.990       .  S
O172        C176   1.280       .  A
O173        C176   1.285       .  A
O174        H184   0.990       .  S
O175        H188   0.990       .  S
C176       C1194   1.464       .  S
Zr199       O201   2.419       .  S
Zr199       O202   2.437       .  S
Zr199       O205   2.426       .  S
Zr199       O207   2.378       .  S
Zr199       O208   2.381       .  S
Zr199       O209   2.403       .  S
Zr199       O210   2.395       .  S
Zr199       O200   2.436       .  S
O200        H256   0.990       .  S
O200        H264   0.990       .  S
O201        C221   1.282       .  A
O202        C223   1.284       .  A
O203       Zr213   2.436       .  S
O203        C222   1.284       .  A
O204       Zr212   2.431       .  S
O204        C223   1.285       .  A
O205        C222   1.284       .  A
O206       Zr214   2.402       .  S
O206        C221   1.278       .  A
O207       Zr212   2.389       .  S
O207       Zr214   2.376       .  S
O208       Zr213   2.390       .  S
O208       Zr214   2.384       .  S
O208        H243   0.966       .  S
O209       Zr212   2.399       .  S
O209       Zr229   2.400       .  S
O209        H246   0.966       .  S
O210       Zr213   2.390       .  S
O210       Zr229   2.394       .  S
Zr211       O230   2.408       .  S
Zr211       O238   2.430       .  S
Zr211       O226   2.418       .  S
Zr211       O217   2.386       .  S
Zr211       O218   2.398       .  S
Zr211       O219   2.378       .  S
Zr211       O220   2.384       .  S
Zr211       O236   2.441       .  S
Zr212       O225   2.431       .  S
Zr212       O218   2.398       .  S
Zr212       O219   2.386       .  S
Zr212       O231   2.436       .  S
Zr212       O224   2.437       .  S
Zr213       O239   2.423       .  S
Zr213       O217   2.386       .  S
Zr213       O220   2.390       .  S
Zr213       O215   2.435       .  S
Zr213       O237   2.439       .  S
Zr214       O217   2.378       .  S
Zr214       O218   2.389       .  S
Zr214       O240   2.434       .  S
Zr214       O241   2.435       .  S
Zr214       O216   2.436       .  S
O215        H252   0.990       .  S
O216        H247   0.990       .  S
O216        H261   0.990       .  S
O218        H244   0.966       .  S
O219       Zr229   2.373       .  S
O220       Zr229   2.386       .  S
O220        H245   0.966       .  S
C221       C1165   1.462       .  S
C222       C1245   1.493       .  S
C223       C1114   1.484       .  S
O224        H260   0.990       .  S
O225        C227   1.284       .  A
O226        C227   1.280       .  A
C227       C1229   1.476       .  S
O228       Zr229   2.440       .  S
O228        H257   0.990       .  S
Zr229       O234   2.418       .  S
Zr229       O232   2.438       .  S
Zr229       O233   2.438       .  S
O230        C235   1.279       .  A
O231        H248   0.990       .  S
O231        H263   0.990       .  S
O232        H249   0.991       .  S
O233        H253   0.990       .  S
O233        H262   0.990       .  S
O234        C235   1.281       .  A
C235       C1181   1.477       .  S
O236        H255   0.991       .  S
O236        H259   0.990       .  S
O237        H251   0.990       .  S
O237        H258   0.990       .  S
O238        C242   1.283       .  A
O239        C242   1.283       .  A
O240        H250   0.990       .  S
O241        H254   0.990       .  S
C242       C1130   1.469       .  S
Zr265       O267   2.429       .  S
Zr265       O268   2.432       .  S
Zr265       O271   2.418       .  S
Zr265       O273   2.377       .  S
Zr265       O274   2.377   1_554  S
Zr265       O275   2.401       .  S
Zr265       O276   2.405   1_455  S
Zr265       O266   2.442       .  S
O266        H322   0.991       .  S
O266        H330   0.990       .  S
O267        C287   1.283   1_554  A
O268        C289   1.284       .  A
O269       Zr279   2.445       .  S
O269        C288   1.287       .  A
O270      Zr1646   2.420   1_545  S
O270        C289   1.282       .  A
O271        C288   1.281   1_554  A
O272       Zr280   2.414       .  S
O272        C287   1.281       .  A
O273       Zr280   2.377   1_554  S
O273      Zr1646   2.391   1_545  S
O274       Zr279   2.385       .  S
O274       Zr280   2.370       .  S
O274        H309   0.966       .  S
O275       Zr295   2.391   1_455  S
O275      Zr1646   2.400   1_545  S
O275        H312   0.965   1_455  S
O276       Zr279   2.391   1_654  S
O276       Zr295   2.394       .  S
Zr277       O296   2.432   1_455  S
Zr277       O292   2.448       .  S
Zr277      O1672   2.432       .  S
Zr277       O285   2.371   1_456  S
Zr277      O1651   2.398       .  S
Zr277      O1652   2.402       .  S
Zr277      O1654   2.389   1_455  S
Zr277       O302   2.436       .  S
Zr278       O291   2.430       .  S
Zr278      O1638   2.426       .  S
Zr278       O285   2.388   1_455  S
Zr278      O1641   2.392       .  S
Zr278      O1643   2.399       .  S
Zr278      O1652   2.391   1_554  S
Zr278       O297   2.434   1_455  S
Zr278       O290   2.435       .  S
Zr279       O305   2.426       .  S
Zr279       O283   2.396       .  S
Zr279       O286   2.398   1_455  S
Zr279       O281   2.436   1_455  S
Zr279       O303   2.439       .  S
Zr280       O283   2.387       .  S
Zr280       O284   2.390       .  S
Zr280       O306   2.435       .  S
Zr280       O307   2.434       .  S
Zr280       O282   2.436       .  S
O281        H318   0.990       .  S
O282        H313   0.990       .  S
O282        H327   0.990       .  S
O283      Zr1645   2.399       .  S
O284      Zr1645   2.400       .  S
O284      Zr1646   2.388   1_546  S
O284        H310   0.965       .  S
O285      Zr1663   2.379       .  S
O286       Zr295   2.381   1_556  S
O286      Zr1645   2.389   1_655  S
O286        H311   0.966       .  S
C287       C1050   1.480       .  S
C288       C1085   1.485       .  S
C289       C1357   1.475       .  S
O290       H1694   0.990       .  S
O291        C293   1.285   1_554  A
O292        C293   1.286       .  A
C293       C1069   1.499       .  S
O294       Zr295   2.439       .  S
O294        H323   0.990   1_545  S
Zr295      O1668   2.415   1_545  S
Zr295      O1653   2.378   1_545  S
Zr295       O299   2.440       .  S
Zr295      O1666   2.438   1_545  S
O296        C301   1.283       .  A
O297        H314   0.990   1_655  S
O297        H329   0.990       .  S
O298      Zr1663   2.438       .  S
O298        H315   0.990       .  S
O299        H328   0.990       .  S
O299       H1687   0.990   1_554  S
O300      Zr1663   2.405       .  S
O300        C301   1.280   1_554  A
C301       C1037   1.484       .  S
O302        H325   0.990       .  S
O302       H1689   0.990       .  S
O303        H317   0.990       .  S
O303        H324   0.990       .  S
O304      Zr1645   2.427       .  S
O304        C308   1.283       .  A
O305        C308   1.282       .  A
O306        H316   0.990       .  S
O307        H320   0.990       .  S
C308       C1098   1.489       .  S
H319       O1667   0.990   1_556  S
H321       O1670   0.990       .  S
H326       O1658   0.990   1_545  S
Zr331       O333   2.439       .  S
Zr331       O334   2.449       .  S
Zr331       O337   2.442       .  S
Zr331       O339   2.385       .  S
Zr331       O340   2.383   1_554  S
Zr331       O341   2.407       .  S
Zr331       O342   2.406   1_455  S
Zr331       O332   2.439       .  S
O332        H388   0.990       .  S
O332        H396   0.990       .  S
O333        C353   1.285       .  A
O334        C355   1.287       .  A
O335       Zr345   2.430       .  S
O335        C354   1.285       .  A
O336       Zr344   2.431       .  S
O336        C355   1.284       .  A
O337        C354   1.286   1_554  A
O338       Zr346   2.415       .  S
O338        C353   1.281   1_556  A
O339       Zr344   2.398       .  S
O339       Zr346   2.379   1_554  S
O340       Zr345   2.386       .  S
O340       Zr346   2.376       .  S
O340        H375   0.966       .  S
O341       Zr344   2.404       .  S
O341       Zr361   2.390   1_455  S
O341        H378   0.965   1_455  S
O342       Zr345   2.384   1_654  S
O342       Zr361   2.393       .  S
Zr343       O362   2.432   1_455  S
Zr343       O370   2.426       .  S
Zr343       O358   2.430       .  S
Zr343       O349   2.396       .  S
Zr343       O350   2.406       .  S
Zr343       O351   2.374   1_456  S
Zr343       O352   2.382   1_455  S
Zr343       O368   2.442       .  S
Zr344       O357   2.435       .  S
Zr344       O350   2.400   1_554  S
Zr344       O351   2.388   1_455  S
Zr344       O363   2.435   1_455  S
Zr344       O356   2.436       .  S
Zr345       O371   2.421       .  S
Zr345       O349   2.391       .  S
Zr345       O352   2.389   1_455  S
Zr345       O347   2.435   1_455  S
Zr345       O369   2.437       .  S
Zr346       O349   2.389       .  S
Zr346       O350   2.393       .  S
Zr346       O372   2.435       .  S
Zr346       O373   2.435       .  S
Zr346       O348   2.436       .  S
O347        H384   0.990       .  S
O348        H379   0.990       .  S
O348        H393   0.990   1_556  S
O350        H376   0.966       .  S
O351       Zr361   2.376       .  S
O352       Zr361   2.381   1_556  S
O352        H377   0.966       .  S
C353       C1002   1.485       .  S
C354       C1066   1.498       .  S
C355       C1261   1.483       .  S
O356        H392   0.990       .  S
O357        C359   1.285   1_554  A
O358        C359   1.282       .  A
C359       C1082   1.482       .  S
O360       Zr361   2.441       .  S
O360        H389   0.990       .  S
Zr361       O366   2.418       .  S
Zr361       O364   2.437       .  S
Zr361       O365   2.441       .  S
O362        C367   1.283       .  A
O363        H380   0.990   1_655  S
O363        H395   0.989       .  S
O364        H381   0.990       .  S
O365        H385   0.990       .  S
O365        H394   0.989   1_554  S
O366        C367   1.281   1_554  A
C367        C986   1.475       .  S
O368        H387   0.990       .  S
O368        H391   0.990       .  S
O369        H383   0.990       .  S
O369        H390   0.990       .  S
O370        C374   1.284       .  A
O371        C374   1.282       .  A
O372        H382   0.990       .  S
O373        H386   0.990       .  S
C374       C1021   1.480       .  S
Zr397       O399   2.439       .  S
Zr397       O400   2.434       .  S
Zr397       O403   2.432       .  S
Zr397       O405   2.383       .  S
Zr397       O406   2.376   1_554  S
Zr397       O407   2.404       .  S
Zr397       O408   2.399       .  S
Zr397       O398   2.441       .  S
O398        H454   0.990       .  S
O398        H462   0.991       .  S
O399        C419   1.285   1_554  A
O400        C421   1.284       .  A
O401       Zr411   2.438       .  S
O401        C420   1.285       .  A
O402       Zr410   2.420       .  S
O402        C421   1.282       .  A
O403        C420   1.285   1_554  A
O404       Zr412   2.420       .  S
O404        C419   1.281       .  A
O405       Zr410   2.397       .  S
O405       Zr412   2.377   1_554  S
O406       Zr411   2.386       .  S
O406       Zr412   2.380       .  S
O406        H441   0.965       .  S
O407       Zr410   2.408       .  S
O407       Zr427   2.385       .  S
O407        H444   0.965       .  S
O408       Zr411   2.383   1_554  S
O408       Zr427   2.391       .  S
Zr409       O428   2.439       .  S
Zr409       O424   2.440       .  S
Zr409      O1804   2.422       .  S
Zr409       O417   2.371   1_556  S
Zr409      O1783   2.395       .  S
Zr409      O1784   2.410       .  S
Zr409      O1786   2.384       .  S
Zr409       O434   2.436       .  S
Zr410      O1791   2.437   1_545  S
Zr410       O416   2.394   1_554  S
Zr410      O1785   2.390   1_545  S
Zr410      O1797   2.437   1_545  S
Zr410      O1790   2.435       .  S
Zr411       O437   2.413       .  S
Zr411       O415   2.393       .  S
Zr411       O418   2.398       .  S
Zr411       O413   2.435       .  S
Zr411       O435   2.440       .  S
Zr412       O415   2.387       .  S
Zr412       O416   2.402       .  S
Zr412       O438   2.436       .  S
Zr412       O439   2.437       .  S
Zr412       O414   2.439       .  S
O413        H450   0.990       .  S
O414        H445   0.990       .  S
O414        H459   0.990       .  S
O415      Zr1777   2.399       .  S
O416      Zr1777   2.407       .  S
O416        H442   0.966       .  S
O417      Zr1778   2.390       .  S
O417      Zr1795   2.377       .  S
O418       Zr427   2.384   1_556  S
O418      Zr1777   2.383       .  S
O418        H443   0.965       .  S
C419        C989   1.476       .  S
C420        C954   1.489       .  S
C421       C1197   1.468       .  S
O422      Zr1778   2.435       .  S
O422       H1826   0.990       .  S
O423      Zr1778   2.438       .  S
O423        C425   1.287   1_554  A
O424        C425   1.284       .  A
C425        C938   1.500       .  S
O426       Zr427   2.440       .  S
O426        H455   0.990       .  S
Zr427      O1800   2.409   1_545  S
Zr427      O1785   2.379   1_545  S
Zr427       O431   2.443       .  S
Zr427      O1798   2.438   1_545  S
O428        C433   1.284       .  A
O429      Zr1778   2.440       .  S
O429        H446   0.990       .  S
O429        H461   0.990       .  S
O430      Zr1795   2.437       .  S
O430        H447   0.990       .  S
O431        H460   0.989   1_554  S
O431       H1819   0.990   1_545  S
O432      Zr1795   2.406       .  S
O432        C433   1.279   1_554  A
C433       C1005   1.483       .  S
O434        H457   0.990       .  S
O434       H1821   0.990       .  S
O435        H449   0.990       .  S
O435        H456   0.990       .  S
O436      Zr1777   2.421       .  S
O436        C440   1.282       .  A
O437        C440   1.281       .  A
O438        H448   0.990       .  S
O439        H452   0.990       .  S
C440        C970   1.464       .  S
H451       O1799   0.990   1_556  S
H453       O1802   0.990       .  S
H458       O1790   0.990       .  S
Zr463       O465   2.428       .  S
Zr463       O466   2.437       .  S
Zr463       O469   2.430       .  S
Zr463       O471   2.375       .  S
Zr463       O472   2.381   1_554  S
Zr463       O473   2.398       .  S
Zr463       O474   2.402       .  S
Zr463       O464   2.439       .  S
O464        H520   0.990       .  S
O464        H528   0.990       .  S
O465        C485   1.283   1_554  A
O466        C487   1.287       .  A
O467       Zr477   2.443       .  S
O467        C486   1.288       .  A
O468       Zr476   2.418       .  S
O468        C487   1.280       .  A
O469        C486   1.284   1_554  A
O470       Zr478   2.418       .  S
O470        C485   1.282       .  A
O471       Zr476   2.391       .  S
O471       Zr478   2.373   1_554  S
O472       Zr477   2.383       .  S
O472       Zr478   2.377       .  S
O472        H507   0.966       .  S
O473       Zr476   2.400       .  S
O473       Zr493   2.396       .  S
O473        H510   0.966       .  S
O474       Zr477   2.390   1_554  S
O474       Zr493   2.396       .  S
Zr475       O494   2.424       .  S
Zr475       O502   2.426       .  S
Zr475       O490   2.445       .  S
Zr475       O481   2.398       .  S
Zr475       O482   2.401       .  S
Zr475       O483   2.371   1_556  S
Zr475       O484   2.387       .  S
Zr475       O500   2.440       .  S
Zr476       O489   2.426       .  S
Zr476       O482   2.396   1_554  S
Zr476       O483   2.386       .  S
Zr476       O495   2.434       .  S
Zr476       O488   2.433       .  S
Zr477       O503   2.423       .  S
Zr477       O481   2.393       .  S
Zr477       O484   2.395       .  S
Zr477       O479   2.434       .  S
Zr477       O501   2.439       .  S
Zr478       O481   2.387       .  S
Zr478       O482   2.392       .  S
Zr478       O504   2.436       .  S
Zr478       O505   2.435       .  S
Zr478       O480   2.436       .  S
O479        H516   0.990       .  S
O480        H511   0.990       .  S
O480        H525   0.990       .  S
O482        H508   0.966       .  S
O483       Zr493   2.377       .  S
O484       Zr493   2.381   1_556  S
O484        H509   0.966       .  S
C485       C1034   1.483       .  S
C486        C941   1.498       .  S
C487       C1133   1.495       .  S
O488        H524   0.990       .  S
O489        C491   1.283   1_554  A
O490        C491   1.286       .  A
C491        C957   1.487       .  S
O492       Zr493   2.439       .  S
O492        H521   0.991       .  S
Zr493       O498   2.418       .  S
Zr493       O496   2.437       .  S
Zr493       O497   2.441       .  S
O494        C499   1.282       .  A
O495        H512   0.990       .  S
O495        H527   0.990       .  S
O496        H513   0.990       .  S
O497        H517   0.990   1_554  S
O497        H526   0.990       .  S
O498        C499   1.282   1_554  A
C499       C1053   1.481       .  S
O500        H519   0.990       .  S
O500        H523   0.990       .  S
O501        H515   0.990       .  S
O501        H522   0.990       .  S
O502        C506   1.285       .  A
O503        C506   1.282       .  A
O504        H514   0.990       .  S
O505        H518   0.990       .  S
C506        C925   1.489       .  S
Zr529       O531   2.433       .  S
Zr529       O532   2.440   1_655  S
Zr529       O535   2.421       .  S
Zr529       O537   2.383   1_655  S
Zr529       O538   2.381       .  S
Zr529       O539   2.402   1_655  S
Zr529       O540   2.402   1_655  S
Zr529       O530   2.440       .  S
O530        H586   0.990       .  S
O530        H594   0.990       .  S
O531        C551   1.283   1_545  A
O532        C553   1.285       .  A
O533       Zr543   2.415   1_655  S
O533        C552   1.280       .  A
O534       Zr542   2.415       .  S
O534        C553   1.281       .  A
O535        C552   1.284       .  A
O536       Zr544   2.426   1_665  S
O536        C551   1.283       .  A
O537       Zr542   2.393       .  S
O537       Zr544   2.375       .  S
O538       Zr543   2.385   1_655  S
O538       Zr544   2.378   1_655  S
O538        H573   0.966       .  S
O539       Zr542   2.395       .  S
O539       Zr559   2.390       .  S
O539        H576   0.966       .  S
O540       Zr543   2.385       .  S
O540       Zr559   2.391       .  S
Zr541       O560   2.433       .  S
Zr541       O568   2.443       .  S
Zr541       O556   2.442       .  S
Zr541       O547   2.395       .  S
Zr541       O548   2.410       .  S
Zr541       O549   2.378       .  S
Zr541       O550   2.384       .  S
Zr541       O566   2.440       .  S
Zr542       O555   2.416       .  S
Zr542       O548   2.396       .  S
Zr542       O549   2.385       .  S
Zr542       O561   2.435       .  S
Zr542       O554   2.434       .  S
Zr543       O569   2.410       .  S
Zr543       O547   2.387       .  S
Zr543       O550   2.388       .  S
Zr543       O545   2.435       .  S
Zr543       O567   2.439   1_455  S
Zr544       O547   2.391       .  S
Zr544       O548   2.399       .  S
Zr544       O570   2.435   1_445  S
Zr544       O571   2.436   1_545  S
Zr544       O546   2.437   1_545  S
O545        H582   0.990   1_455  S
O546        H591   0.990       .  S
O546       H1945   0.990   1_455  S
O548        H574   0.966       .  S
O549       Zr559   2.377       .  S
O550       Zr559   2.389       .  S
O550        H575   0.966       .  S
C551       C2226   1.484       .  S
C552        C890   1.486       .  S
C553       C1274   1.483       .  S
O554        H590   0.990       .  S
O555        C557   1.282       .  A
O556        C557   1.284       .  A
C557        C909   1.480       .  S
O558       Zr559   2.440       .  S
O558        H587   0.990       .  S
Zr559       O564   2.406       .  S
Zr559       O562   2.437       .  S
Zr559       O563   2.440       .  S
O560        C565   1.283       .  A
O561        H578   0.990       .  S
O561        H593   0.990       .  S
O562        H579   0.990       .  S
O563        H583   0.990       .  S
O563        H592   0.990       .  S
O564        C565   1.280       .  A
C565        C877   1.487       .  S
O566        H585   0.990       .  S
O566        H589   0.989       .  S
O567        H581   0.990       .  S
O567        H588   0.990       .  S
O568        C572   1.286       .  A
O569        C572   1.280       .  A
O570       H1948   0.990       .  S
O571        H584   0.990   1_565  S
C572       C1101   1.476       .  S
H577       O1914   0.990   1_655  S
H580       O1938   0.990       .  S
Zr595       O597   2.422       .  S
Zr595       O598   2.425   1_655  S
Zr595       O601   2.434       .  S
Zr595       O603   2.382   1_655  S
Zr595       O604   2.374       .  S
Zr595       O605   2.402   1_655  S
Zr595       O606   2.391   1_655  S
Zr595       O596   2.439       .  S
O596        H652   0.990       .  S
O596        H660   0.990       .  S
O597        C617   1.281       .  A
O598        C619   1.282       .  A
O599       Zr609   2.413       .  S
O599        C618   1.279       .  A
O600       Zr608   2.415       .  S
O600        C619   1.282       .  A
O601        C618   1.287       .  A
O602       Zr610   2.434       .  S
O602        C617   1.284       .  A
O603       Zr608   2.392       .  S
O603       Zr610   2.373   1_455  S
O604       Zr609   2.387       .  S
O604       Zr610   2.373       .  S
O604        H639   0.966       .  S
O605       Zr608   2.400       .  S
O605       Zr625   2.386       .  S
O605        H642   0.966       .  S
O606       Zr609   2.384   1_455  S
O606       Zr625   2.386       .  S
Zr607       O626   2.432       .  S
Zr607       O634   2.449       .  S
Zr607       O622   2.428       .  S
Zr607       O613   2.396       .  S
Zr607       O614   2.410       .  S
Zr607       O615   2.378       .  S
Zr607       O616   2.380       .  S
Zr607       O632   2.442       .  S
Zr608       O621   2.429       .  S
Zr608       O614   2.394       .  S
Zr608       O615   2.384       .  S
Zr608       O627   2.438       .  S
Zr608       O620   2.435       .  S
Zr609       O635   2.401   1_655  S
Zr609       O613   2.393   1_655  S
Zr609       O616   2.391   1_655  S
Zr609       O611   2.435       .  S
Zr609       O633   2.438       .  S
Zr610       O613   2.396   1_655  S
Zr610       O614   2.399   1_655  S
Zr610       O636   2.434       .  S
Zr610       O637   2.435   1_655  S
Zr610       O612   2.437   1_655  S
O611        H648   0.990       .  S
O612        H643   0.990   1_455  S
O612        H657   0.990       .  S
O614        H640   0.966       .  S
O615       Zr625   2.377       .  S
O616       Zr625   2.388       .  S
O616        H641   0.966       .  S
C617        C794   1.485       .  S
C618        C829   1.489       .  S
C619       C1210   1.475       .  S
O620        H656   0.990       .  S
O621        C623   1.284       .  A
O622        C623   1.284       .  A
C623        C845   1.477       .  S
O624       Zr625   2.440       .  S
O624        H653   0.990       .  S
Zr625       O630   2.398       .  S
Zr625       O628   2.438       .  S
Zr625       O629   2.441       .  S
O626        C631   1.284       .  A
O627        H644   0.990       .  S
O627        H659   0.990       .  S
O628        H645   0.990       .  S
O629        H649   0.990       .  S
O629        H658   0.989       .  S
O630        C631   1.276       .  A
C631        C813   1.480       .  S
O632        H651   0.991       .  S
O632        H655   0.990       .  S
O633        H647   0.990       .  S
O633        H654   0.990       .  S
O634        C638   1.285       .  A
O635        C638   1.278       .  A
O636        H646   0.990       .  S
O637        H650   0.990       .  S
C638       C1018   1.468       .  S
Zr661       O663   2.430       .  S
Zr661       O664   2.432       .  S
Zr661       O667   2.436       .  S
Zr661       O669   2.378       .  S
Zr661       O670   2.380       .  S
Zr661       O671   2.405       .  S
Zr661       O672   2.399       .  S
Zr661       O662   2.439       .  S
O662        H718   0.990       .  S
O662        H726   0.990       .  S
O663        C683   1.285   1_545  A
O664        C685   1.284       .  A
O665       Zr675   2.425       .  S
O665        C684   1.283       .  A
O666       Zr674   2.409       .  S
O666        C685   1.280       .  A
O667        C684   1.285       .  A
O668       Zr676   2.413   1_565  S
O668        C683   1.279       .  A
O669       Zr674   2.389       .  S
O669       Zr676   2.370       .  S
O670       Zr675   2.387       .  S
O670       Zr676   2.380       .  S
O670        H705   0.966       .  S
O671       Zr674   2.397       .  S
O671       Zr691   2.401       .  S
O671        H708   0.966       .  S
O672       Zr675   2.382       .  S
O672       Zr691   2.393       .  S
Zr673       O692   2.430       .  S
Zr673       O700   2.426       .  S
Zr673       O688   2.433       .  S
Zr673       O679   2.401       .  S
Zr673       O680   2.404       .  S
Zr673       O681   2.374       .  S
Zr673       O682   2.381       .  S
Zr673       O698   2.442       .  S
Zr674       O687   2.411       .  S
Zr674       O680   2.398       .  S
Zr674       O681   2.385       .  S
Zr674       O693   2.434       .  S
Zr674       O686   2.436       .  S
Zr675       O701   2.408       .  S
Zr675       O679   2.393       .  S
Zr675       O682   2.390       .  S
Zr675       O677   2.437       .  S
Zr675       O699   2.438       .  S
Zr676       O679   2.392       .  S
Zr676       O680   2.389       .  S
Zr676       O702   2.434   1_545  S
Zr676       O703   2.435   1_545  S
Zr676       O678   2.438   1_545  S
O677        H714   0.990       .  S
O678        H723   0.990       .  S
O678       H2077   0.990       .  S
O680        H706   0.966       .  S
O681       Zr691   2.377       .  S
O682       Zr691   2.381       .  S
O682        H707   0.966       .  S
C683       C2178   1.484       .  S
C684        C906   1.484       .  S
C685       C1146   1.472       .  S
O686        H722   0.990       .  S
O687        C689   1.279       .  A
O688        C689   1.284       .  A
C689        C893   1.484       .  S
O690       Zr691   2.439       .  S
O690        H719   0.990       .  S
Zr691       O696   2.426       .  S
Zr691       O694   2.436       .  S
Zr691       O695   2.441       .  S
O692        C697   1.282       .  A
O693        H710   0.990       .  S
O693        H725   0.989       .  S
O694        H711   0.990       .  S
O695        H715   0.990       .  S
O695        H724   0.990       .  S
O696        C697   1.283       .  A
C697        C797   1.483       .  S
O698        H717   0.990       .  S
O698        H721   0.990       .  S
O699        H713   0.990       .  S
O699        H720   0.990       .  S
O700        C704   1.283       .  A
O701        C704   1.281       .  A
O702       H2080   0.990       .  S
O703        H716   0.990       .  S
C704        C973   1.468       .  S
H709       O2046   0.990       .  S
H712       O2070   0.990       .  S
Zr727       O729   2.429       .  S
Zr727       O730   2.441       .  S
Zr727       O733   2.426       .  S
Zr727       O735   2.380       .  S
Zr727       O736   2.381       .  S
Zr727       O737   2.401       .  S
Zr727       O738   2.402       .  S
Zr727       O728   2.440       .  S
O728        H784   0.991       .  S
O728        H792   0.990       .  S
O729        C749   1.282       .  A
O730        C751   1.286       .  A
O731       Zr741   2.425       .  S
O731        C750   1.283       .  A
O732       Zr740   2.425       .  S
O732        C751   1.283       .  A
O733        C750   1.284       .  A
O734       Zr742   2.410       .  S
O734        C749   1.281       .  A
O735       Zr740   2.393       .  S
O735       Zr742   2.374       .  S
O736       Zr741   2.385       .  S
O736       Zr742   2.376       .  S
O736        H771   0.966       .  S
O737       Zr740   2.399       .  S
O737       Zr757   2.395       .  S
O737        H774   0.966       .  S
O738       Zr741   2.387       .  S
O738       Zr757   2.393       .  S
Zr739       O758   2.437       .  S
Zr739       O766   2.442       .  S
Zr739       O754   2.433       .  S
Zr739       O745   2.394       .  S
Zr739       O746   2.410       .  S
Zr739       O747   2.377       .  S
Zr739       O748   2.385       .  S
Zr739       O764   2.442       .  S
Zr740       O753   2.424       .  S
Zr740       O746   2.401       .  S
Zr740       O747   2.388       .  S
Zr740       O759   2.434       .  S
Zr740       O752   2.434       .  S
Zr741       O767   2.415       .  S
Zr741       O745   2.389       .  S
Zr741       O748   2.393       .  S
Zr741       O743   2.435       .  S
Zr741       O765   2.439       .  S
Zr742       O745   2.386       .  S
Zr742       O746   2.390       .  S
Zr742       O768   2.435       .  S
Zr742       O769   2.435       .  S
Zr742       O744   2.436       .  S
O743        H780   0.990       .  S
O744        H775   0.990       .  S
O744        H789   0.990       .  S
O746        H772   0.965       .  S
O747       Zr757   2.376       .  S
O748       Zr757   2.389       .  S
O748        H773   0.966       .  S
C749        C874   1.483       .  S
C750        C842   1.475       .  S
C751       C1117   1.487       .  S
O752        H788   0.990       .  S
O753        C755   1.282       .  A
O754        C755   1.283       .  A
C755        C826   1.485       .  S
O756       Zr757   2.440       .  S
O756        H785   0.990       .  S
Zr757       O762   2.409       .  S
Zr757       O760   2.437       .  S
Zr757       O761   2.441       .  S
O758        C763   1.283       .  A
O759        H776   0.990       .  S
O759        H791   0.990       .  S
O760        H777   0.990       .  S
O761        H781   0.990       .  S
O761        H790   0.989       .  S
O762        C763   1.280       .  A
C763        C861   1.481       .  S
O764        H783   0.991       .  S
O764        H787   0.989       .  S
O765        H779   0.990       .  S
O765        H786   0.990       .  S
O766        C770   1.286       .  A
O767        C770   1.281       .  A
O768        H778   0.990       .  S
O769        H782   0.990       .  S
C770        C922   1.477       .  S
C793        C794   1.404       .  A
C793        C798   1.405       .  A
C793        H800   1.084       .  S
C794        C795   1.418       .  A
C795        C796   1.403       .  A
C795        C802   1.508       .  S
C796        C797   1.402       .  A
C796        H801   1.084       .  S
C797        C798   1.417       .  A
C798        C799   1.506       .  S
C799        H803   1.111       .  S
C799        H804   1.111       .  S
C799        H805   1.109       .  S
C802        H806   1.110       .  S
C802        H807   1.111       .  S
C802        H808   1.110       .  S
C809        C810   1.402       .  A
C809        C814   1.397       .  A
C809        H816   1.082       .  S
C810       C2051   1.482       .  S
C810        C811   1.420       .  A
C811        C812   1.401       .  A
C811        C818   1.510       .  S
C812        C813   1.404       .  A
C812        H817   1.084       .  S
C813        C814   1.418       .  A
C814        C815   1.509       .  S
C815        H819   1.109       .  S
C815        H820   1.110       .  S
C815        H821   1.109       .  S
C818        H822   1.109       .  S
C818        H823   1.110       .  S
C818        H824   1.111       .  S
C825        C826   1.405       .  A
C825        C830   1.403       .  A
C825        H832   1.082       .  S
C826        C827   1.416       .  A
C827        C828   1.401       .  A
C827        C834   1.508       .  S
C828        C829   1.405       .  A
C828        H833   1.082       .  S
C829        C830   1.421       .  A
C830        C831   1.510       .  S
C831        H835   1.111       .  S
C831        H836   1.110       .  S
C831        H837   1.109       .  S
C834        H838   1.109       .  S
C834        H839   1.110       .  S
C834        H840   1.111       .  S
C841        C842   1.403       .  A
C841        C846   1.401       .  A
C841        H848   1.085       .  S
C842        C843   1.416       .  A
C843        C844   1.402       .  A
C843        C850   1.508       .  S
C844        C845   1.403       .  A
C844        H849   1.085       .  S
C845        C846   1.416       .  A
C846        C847   1.509       .  S
C847        H851   1.111       .  S
C847        H852   1.106       .  S
C847        H853   1.110       .  S
C850        H854   1.110       .  S
C850        H855   1.106       .  S
C850        H856   1.110       .  S
C857        C858   1.404       .  A
C857        C862   1.402       .  A
C857        H864   1.084       .  S
C858       C1919   1.481       .  S
C858        C859   1.417       .  A
C859        C860   1.401       .  A
C859       C2234   1.507       .  S
C860        C861   1.403       .  A
C860        H865   1.084       .  S
C861        C862   1.416       .  A
C862        C863   1.505       .  S
C863        H867   1.111       .  S
C863        H868   1.110       .  S
C863        H869   1.108       .  S
C866       C2227   1.506       .  S
C866        H870   1.109   1_565  S
C866        H871   1.110   1_565  S
C866       H2240   1.111       .  S
H872       C2234   1.110       .  S
C873        C874   1.406       .  A
C873        C878   1.400       .  A
C873        H880   1.084       .  S
C874        C875   1.414       .  A
C875        C876   1.402       .  A
C875        C882   1.509       .  S
C876        C877   1.409       .  A
C876        H881   1.084       .  S
C877        C878   1.417       .  A
C878        C879   1.509       .  S
C879        H883   1.111       .  S
C879        H884   1.109       .  S
C879        H885   1.110       .  S
C882        H886   1.110       .  S
C882        H887   1.110       .  S
C882        H888   1.111       .  S
C889        C890   1.405       .  A
C889        C894   1.399       .  A
C889        H896   1.082       .  S
C890        C891   1.419       .  A
C891        C892   1.400       .  A
C891        C898   1.510       .  S
C892        C893   1.404       .  A
C892        H897   1.081       .  S
C893        C894   1.417       .  A
C894        C895   1.509       .  S
C895        H899   1.111       .  S
C895        H900   1.109       .  S
C895        H901   1.111       .  S
C898        H902   1.110       .  S
C898        H903   1.109       .  S
C898        H904   1.111       .  S
C905        C906   1.407       .  A
C905        C910   1.405       .  A
C905        H912   1.084       .  S
C906        C907   1.414       .  A
C907        C908   1.402       .  A
C907        C914   1.506       .  S
C908        C909   1.403       .  A
C908        H913   1.084       .  S
C909        C910   1.414       .  A
C910        C911   1.508       .  S
C911        H915   1.111       .  S
C911        H916   1.108       .  S
C911        H917   1.110       .  S
C914        H918   1.111       .  S
C914        H919   1.109       .  S
C914        H920   1.110       .  S
C921        C922   1.403       .  A
C921        C926   1.405       .  A
C921        H928   1.084       .  S
C922        C923   1.412       .  A
C923        C924   1.399       .  A
C923        C930   1.508       .  S
C924        C925   1.407       .  A
C924        H929   1.083       .  S
C925        C926   1.421       .  A
C926        C927   1.508       .  S
C927        H931   1.111       .  S
C927        H932   1.108       .  S
C927        H933   1.110       .  S
C930        H934   1.107       .  S
C930        H935   1.110       .  S
C930        H936   1.111       .  S
C937        C938   1.406   1_554  A
C937        C942   1.406       .  A
C937        H944   1.084       .  S
C938        C939   1.421       .  A
C939        C940   1.407       .  A
C939        C946   1.504       .  S
C940        C941   1.406       .  A
C940        H945   1.084       .  S
C941        C942   1.420   1_556  A
C942        C943   1.507       .  S
C943        H947   1.111       .  S
C943        H948   1.109       .  S
C943        H949   1.110       .  S
C946        H950   1.110       .  S
C946        H951   1.107       .  S
C946        H952   1.111       .  S
C953        C954   1.404   1_554  A
C953        C958   1.405       .  A
C953        H960   1.084       .  S
C954        C955   1.418       .  A
C955        C956   1.407       .  A
C955        C962   1.508       .  S
C956        C957   1.405       .  A
C956        H961   1.084       .  S
C957        C958   1.417   1_556  A
C958        C959   1.508       .  S
C959        H963   1.111       .  S
C959        H964   1.109       .  S
C959        H965   1.111   1_554  S
C962        H966   1.111       .  S
C962        H967   1.109       .  S
C962        H968   1.111       .  S
C969        C970   1.403       .  A
C969        C974   1.401       .  A
C969        H976   1.085       .  S
C970        C971   1.410       .  A
C971        C972   1.398       .  A
C971        C978   1.508       .  S
C972        C973   1.403       .  A
C972        H977   1.084       .  S
C973        C974   1.412       .  A
C974        C975   1.508       .  S
C975        H979   1.111       .  S
C975        H980   1.110       .  S
C975        H981   1.109       .  S
C978       H2350   1.110       .  S
C978       H2351   1.109   1_545  S
C978       H2352   1.111       .  S
H982       C2346   1.110       .  S
H983       C2346   1.109       .  S
H984       C2346   1.111       .  S
C985        C986   1.402       .  A
C985        C990   1.405       .  A
C985        H992   1.084       .  S
C986        C987   1.415   1_556  A
C987        C988   1.401       .  A
C987        C994   1.508       .  S
C988        C989   1.400   1_554  A
C988        H993   1.084       .  S
C989        C990   1.417       .  A
C990        C991   1.508       .  S
C991        H995   1.111       .  S
C991        H996   1.111       .  S
C991        H997   1.109       .  S
C994        H998   1.107       .  S
C994        H999   1.110       .  S
C994       H1000   1.111       .  S
C1001      C1002   1.407   1_556  A
C1001      C1006   1.403       .  A
C1001      H1008   1.084       .  S
C1002      C1003   1.417       .  A
C1003      C1004   1.404       .  A
C1003      C1010   1.509       .  S
C1004      C1005   1.406   1_554  A
C1004      H1009   1.084       .  S
C1005      C1006   1.416       .  A
C1006      C1007   1.510       .  S
C1007      H1011   1.111       .  S
C1007      H1012   1.111       .  S
C1007      H1013   1.109       .  S
C1010      H1014   1.110       .  S
C1010      H1015   1.111       .  S
C1010      H1016   1.111       .  S
C1017      C1018   1.398       .  A
C1017      C1022   1.404       .  A
C1017      H1024   1.084       .  S
C1018      C1019   1.412       .  A
C1019      C1020   1.400   1_455  A
C1019      C1026   1.508   1_455  S
C1020      C1021   1.403   1_655  A
C1020      H1025   1.084       .  S
C1021      C1022   1.419       .  A
C1022      C1023   1.506       .  S
C1023      H1027   1.111       .  S
C1023      H1028   1.110       .  S
C1023      H1029   1.109       .  S
C1026      H1030   1.111       .  S
C1026      H1031   1.109       .  S
C1026      H1032   1.111       .  S
C1033      C1034   1.407       .  A
C1033      C1038   1.402       .  A
C1033      H1040   1.084       .  S
C1034      C1035   1.415   1_556  A
C1035      C1036   1.401       .  A
C1035      C1042   1.510       .  S
C1036      C1037   1.408   1_554  A
C1036      H1041   1.084       .  S
C1037      C1038   1.415       .  A
C1038      C1039   1.509       .  S
C1039      H1043   1.111       .  S
C1039      H1044   1.110       .  S
C1039      H1045   1.110       .  S
C1042      H1046   1.111       .  S
C1042      H1047   1.109       .  S
C1042      H1048   1.111       .  S
C1049      C1050   1.405       .  A
C1049      C1054   1.401       .  A
C1049      H1056   1.084       .  S
C1050      C1051   1.414   1_556  A
C1051      C1052   1.404       .  A
C1051      C1058   1.509       .  S
C1052      C1053   1.407   1_554  A
C1052      H1057   1.084       .  S
C1053      C1054   1.415       .  A
C1054      C1055   1.509       .  S
C1055      H1059   1.111       .  S
C1055      H1060   1.110       .  S
C1055      H1061   1.110       .  S
C1058      H1062   1.111       .  S
C1058      H1063   1.109       .  S
C1058      H1064   1.111       .  S
C1065      C1066   1.407       .  A
C1065      C1070   1.405       .  A
C1065      H1072   1.084       .  S
C1066      C1067   1.419   1_556  A
C1067      C1068   1.406       .  A
C1067      C1074   1.506       .  S
C1068      C1069   1.407   1_554  A
C1068      H1073   1.084       .  S
C1069      C1070   1.419       .  A
C1070      C1071   1.505       .  S
C1071      H1075   1.111       .  S
C1071      H1076   1.110       .  S
C1071      H1077   1.108       .  S
C1074      H1078   1.109       .  S
C1074      H1079   1.110   1_455  S
C1074      H1080   1.111       .  S
C1081      C1082   1.402   1_554  A
C1081      C1086   1.405       .  A
C1081      H1088   1.084       .  S
C1082      C1083   1.417   1_455  A
C1083      C1084   1.405   1_655  A
C1083      C1090   1.509       .  S
C1084      C1085   1.404       .  A
C1084      H1089   1.084   1_455  S
C1085      C1086   1.419   1_556  A
C1086      C1087   1.510       .  S
C1087      H1091   1.111       .  S
C1087      H1092   1.111   1_554  S
C1087      H1093   1.109       .  S
C1090      H1094   1.108       .  S
C1090      H1095   1.110   1_556  S
C1090      H1096   1.111       .  S
C1097      C1098   1.408       .  A
C1097      C1102   1.399       .  A
C1097      H1104   1.081       .  S
C1098      C1099   1.419       .  A
C1099      C1100   1.405       .  A
C1099      C1106   1.508   1_455  S
C1100      C1101   1.403       .  A
C1100      H1105   1.084       .  S
C1101      C1102   1.412       .  A
C1102      C1103   1.509       .  S
C1103      H1107   1.111       .  S
C1103      H1108   1.107       .  S
C1103      H1109   1.111       .  S
C1106      H1110   1.109   1_655  S
C1106      H1111   1.111       .  S
C1106      H1112   1.111       .  S
C1113      C1114   1.403       .  A
C1113      C1118   1.404       .  A
C1113      H1120   1.084       .  S
C1114      C1115   1.415       .  A
C1115      C1116   1.403       .  A
C1115      C1122   1.505       .  S
C1116      C1117   1.404       .  A
C1116      H1121   1.083       .  S
C1117      C1118   1.419       .  A
C1118      C1119   1.507       .  S
C1119      H1123   1.111       .  S
C1119      H1124   1.108       .  S
C1119      H1125   1.110       .  S
C1122      H1126   1.110       .  S
C1122      H1127   1.107       .  S
C1122      H1128   1.111       .  S
C1129      C1130   1.398       .  A
C1129      C1134   1.407       .  A
C1129      H1136   1.085       .  S
C1130      C1131   1.409       .  A
C1131      C1132   1.397       .  A
C1131      C1138   1.509       .  S
C1132      C1133   1.408       .  A
C1132      H1137   1.084       .  S
C1133      C1134   1.427       .  A
C1134      C1135   1.508       .  S
C1135      H1139   1.111       .  S
C1135      H1140   1.110       .  S
C1135      H1141   1.109       .  S
C1138      H1142   1.110       .  S
C1138      H1143   1.109       .  S
C1138      H1144   1.111       .  S
C1145      C1146   1.402       .  A
C1145      C1150   1.401       .  A
C1145      H1152   1.084       .  S
C1146      C1147   1.415       .  A
C1147      C1148   1.399       .  A
C1147      C1154   1.507       .  S
C1148      C1149   1.400       .  A
C1148      H1153   1.085       .  S
C1149      C1150   1.413       .  A
C1150      C1151   1.505   1_545  S
C1151      H1155   1.111       .  S
C1151      H1156   1.111       .  S
C1151      H1157   1.106   1_565  S
C1154      H1158   1.109       .  S
C1154      H1159   1.110       .  S
C1154      H2528   1.111       .  S
H1160      C2522   1.111       .  S
C1161      C1162   1.401       .  A
C1161      C1166   1.398       .  A
C1161      H1168   1.085       .  S
C1162      C1163   1.412       .  A
C1163      C1164   1.393       .  A
C1163      C1170   1.508       .  S
C1164      C1165   1.400       .  A
C1164      H1169   1.085       .  S
C1165      C1166   1.415       .  A
C1166      C1167   1.508       .  S
C1167      H1171   1.111       .  S
C1167      H1172   1.110       .  S
C1167      H1173   1.106       .  S
C1170      H1174   1.107       .  S
C1170      H1175   1.110       .  S
C1170      H1176   1.111       .  S
C1177      C1178   1.405       .  A
C1177      C1182   1.396       .  A
C1177      H1184   1.084       .  S
C1178      C1179   1.414       .  A
C1179      C1180   1.402       .  A
C1179      C1186   1.509       .  S
C1180      C1181   1.407       .  A
C1180      H1185   1.084       .  S
C1181      C1182   1.416       .  A
C1182      C1183   1.511       .  S
C1183      H1187   1.111       .  S
C1183      H1188   1.109       .  S
C1183      H1189   1.111       .  S
C1186      H1190   1.111       .  S
C1186      H1191   1.110       .  S
C1186      H1192   1.111       .  S
C1193      C1198   1.401       .  A
C1193      C2562   1.402       .  A
C1193      H1200   1.084       .  S
C1194      C1195   1.407       .  A
C1194      C2561   1.402       .  A
C1195      C1196   1.401       .  A
C1195      C1202   1.507       .  S
C1196      C2565   1.405       .  A
C1196      H1201   1.084       .  S
C1197      C1198   1.411       .  A
C1197      C2564   1.405   1_545  A
C1198      C1199   1.508       .  S
C1199      H1203   1.111       .  S
C1199      H1204   1.109       .  S
C1199      H1205   1.110       .  S
C1202      H1206   1.110       .  S
C1202      H1207   1.111       .  S
C1202      H1208   1.111       .  S
C1209      C1210   1.406       .  A
C1209      C1214   1.400       .  A
C1209      H1216   1.084       .  S
C1210      C1211   1.414       .  A
C1211      C1212   1.399       .  A
C1211      C1218   1.509   1_455  S
C1212      C1213   1.404       .  A
C1212      H1217   1.084   1_455  S
C1213      C1214   1.413       .  A
C1214      C1215   1.508       .  S
C1215      H1219   1.111       .  S
C1215      H1220   1.111       .  S
C1215      H1221   1.109       .  S
C1218      H1222   1.108       .  S
C1218      H1223   1.111       .  S
C1218      H1224   1.111       .  S
C1225      C1226   1.404       .  A
C1225      C1230   1.403       .  A
C1225      H1232   1.084       .  S
C1226      C1227   1.418       .  A
C1227      C1228   1.401       .  A
C1227      C1234   1.511       .  S
C1228      C1229   1.402       .  A
C1228      H1233   1.084       .  S
C1229      C1230   1.416       .  A
C1230      C1231   1.510       .  S
C1231      H1235   1.111       .  S
C1231      H1236   1.109       .  S
C1231      H1237   1.111       .  S
C1234      H1238   1.111       .  S
C1234      H1239   1.109       .  S
C1234      H1240   1.111       .  S
C1241      C1242   1.408       .  A
C1241      C1246   1.407       .  A
C1241      H1248   1.083       .  S
C1242      C1243   1.418       .  A
C1243      C1244   1.404       .  A
C1243      C1250   1.508       .  S
C1244      C1245   1.406       .  A
C1244      H1249   1.084       .  S
C1245      C1246   1.419       .  A
C1246      C1247   1.508       .  S
C1247      H1251   1.111       .  S
C1247      H1252   1.110       .  S
C1247      H1253   1.110       .  S
C1250      H1254   1.110       .  S
C1250      H1255   1.110       .  S
C1250      H1256   1.111       .  S
C1257      C1258   1.399       .  A
C1257      C1262   1.403       .  A
C1257      H1264   1.084   1_455  S
C1258      C1259   1.415       .  A
C1259      C1260   1.406       .  A
C1259      C1266   1.507       .  S
C1260      C1261   1.403       .  A
C1260      H1265   1.084       .  S
C1261      C1262   1.418       .  A
C1262      C1263   1.507   1_455  S
C1263      H1267   1.111       .  S
C1263      H1268   1.108       .  S
C1263      H1269   1.110       .  S
C1266      H1270   1.109       .  S
C1266      H1271   1.110       .  S
C1266      H1272   1.111       .  S
C1273      C1274   1.406       .  A
C1273      C1278   1.406       .  A
C1273      H1280   1.084       .  S
C1274      C1275   1.417       .  A
C1275      C1276   1.399       .  A
C1275      C1282   1.510       .  S
C1276      C1277   1.404       .  A
C1276      H1281   1.084       .  S
C1277      C1278   1.418       .  A
C1278      C2647   1.509       .  S
C1279      C2646   1.510       .  S
C1279      H1283   1.111       .  S
C1279      H1284   1.109   1_455  S
C1279      H1285   1.111       .  S
C1282      H1286   1.110       .  S
C1282      H1287   1.110       .  S
C1282      H1288   1.111       .  S
C1289      C1290   1.403       .  A
C1289      C1294   1.399       .  A
C1289      H1296   1.084       .  S
C1290      C1291   1.413       .  A
C1291      C1292   1.398       .  A
C1291      C1298   1.510       .  S
C1292      C1293   1.404       .  A
C1292      H1297   1.085       .  S
C1293      C1294   1.412       .  A
C1294      C1295   1.508       .  S
C1295      H1299   1.111       .  S
C1295      H1300   1.109       .  S
C1295      H1301   1.111       .  S
C1298      H1302   1.111       .  S
C1298      H1303   1.109       .  S
C1298      H1304   1.111       .  S
C1305      C1306   1.401   1_655  A
C1305      C1310   1.399       .  A
C1305      H1312   1.085       .  S
C1306      C1307   1.411       .  A
C1307      C1308   1.395       .  A
C1307      C1314   1.510       .  S
C1308      C1309   1.402       .  A
C1308      H1313   1.085       .  S
C1309      C1310   1.415   1_455  A
C1310      C1311   1.510       .  S
C1311      H1315   1.111       .  S
C1311      H1316   1.110       .  S
C1311      H1317   1.111       .  S
C1314      H1318   1.111       .  S
C1314      H1319   1.109       .  S
C1314      H1320   1.111       .  S
C1321      C1322   1.405       .  A
C1321      C1326   1.403       .  A
C1321      H1328   1.084       .  S
C1322      C2691   1.418       .  A
C1323      C1324   1.401       .  A
C1323      C2690   1.417       .  A
C1323      C1330   1.506       .  S
C1324      C1325   1.402       .  A
C1324      H1329   1.084       .  S
C1325      C2694   1.415       .  A
C1326      C2693   1.416       .  A
C1326      C1327   1.506       .  S
C1327      H1331   1.111       .  S
C1327      H1332   1.109       .  S
C1327      H1333   1.110       .  S
C1330      H1334   1.111       .  S
C1330      H1335   1.108       .  S
C1330      H1336   1.111       .  S
C1337      C1338   1.400       .  A
C1337      C1342   1.401       .  A
C1337      H1344   1.084       .  S
C1338      C2707   1.415       .  A
C1339      C1340   1.404       .  A
C1339      C2706   1.414       .  A
C1339      C1346   1.507       .  S
C1340      C2709   1.404       .  A
C1340      H1345   1.084       .  S
C1341      C1524   1.478       .  S
C1341      C1342   1.415       .  A
C1341      C2708   1.402       .  A
C1342      C1343   1.505       .  S
C1343      H1347   1.111       .  S
C1343      H1348   1.104       .  S
C1343      H1349   1.110       .  S
C1346      H1350   1.110       .  S
C1346      H1351   1.108       .  S
C1346      H1352   1.111       .  S
C1353      C1354   1.399       .  A
C1353      C2726   1.397       .  A
C1353      H1360   1.085   1_455  S
C1354      C2723   1.414       .  A
C1355      C1356   1.403       .  A
C1355      C2722   1.412       .  A
C1355      C1362   1.507       .  S
C1356      C1357   1.405       .  A
C1356      H1361   1.084       .  S
C1357      C1358   1.418   1_545  A
C1358      C2721   1.398       .  A
C1358      C1359   1.506   1_455  S
C1359      H1364   1.108   1_655  S
C1359      H2731   1.111       .  S
C1359      H2733   1.110       .  S
C1362      H1366   1.109       .  S
C1362      H1368   1.111       .  S
C1362      H2735   1.111       .  S
H1363      C2727   1.111       .  S
H1365      C2727   1.110       .  S
H1367      C2730   1.111       .  S
Zr1369     O1371   2.406   1_655  S
Zr1369     O1372   2.411   1_655  S
Zr1369     O1375   2.419       .  S
Zr1369     O1377   2.381   1_655  S
Zr1369     O1378   2.379   1_655  S
O1370      H1426   0.990   1_565  S
O1370      H1434   0.990       .  S
O1371      C1391   1.278       .  A
O1372      C1393   1.279       .  A
O1373     Zr1383   2.433       .  S
O1374     Zr1382   2.431       .  S
O1374      C1393   1.286       .  A
O1375      C1392   1.282       .  A
O1376     Zr1384   2.422       .  S
O1376      C1391   1.283       .  A
O1377     Zr1382   2.387       .  S
O1377     Zr1384   2.371       .  S
O1378     Zr1384   2.374       .  S
O1378      H1413   0.966       .  S
O1379     Zr1399   2.389   1_455  S
O1379      H1416   0.966       .  S
O1380     Zr1383   2.386   1_565  S
O1380     Zr1399   2.386       .  S
Zr1381     O1400   2.425   1_545  S
Zr1381     O1408   2.431       .  S
Zr1381     O1396   2.426       .  S
Zr1381     O1389   2.378   1_545  S
Zr1381     O1390   2.386   1_545  S
Zr1382     O1395   2.431       .  S
Zr1382     O1388   2.396       .  S
Zr1382     O1394   2.436       .  S
Zr1383     O1409   2.415   1_655  S
Zr1383     O1390   2.392   1_645  S
Zr1383     O1385   2.435   1_545  S
Zr1384     O1387   2.392       .  S
Zr1384     O1388   2.391       .  S
Zr1384     O1410   2.434       .  S
Zr1384     O1411   2.435       .  S
Zr1384     O1386   2.437       .  S
O1385      H1422   0.990       .  S
O1386      H1417   0.990       .  S
O1386      H1431   0.990       .  S
O1388      H1414   0.966       .  S
O1389     Zr1399   2.382   1_455  S
O1390     Zr1399   2.388   1_455  S
O1390      H1415   0.966   1_455  S
C1391      C2677   1.473       .  S
C1392      C2693   1.480       .  S
C1393      C2645   1.478       .  S
O1394      H1430   0.990       .  S
O1396      C1397   1.281       .  A
C1397      C2706   1.473       .  S
O1398     Zr1399   2.440       .  S
O1398      H1427   0.990       .  S
Zr1399     O1404   2.396   1_655  S
Zr1399     O1402   2.438       .  S
Zr1399     O1403   2.441       .  S
O1400      C1405   1.281       .  A
O1401      H1418   0.990   1_565  S
O1401      H1433   0.990       .  S
O1402      H1419   0.990       .  S
O1403      H1423   0.990       .  S
O1403      H1432   0.990       .  S
O1404      C1405   1.277       .  A
C1405      C2661   1.468       .  S
O1406      H1425   0.990       .  S
O1406      H1429   0.990       .  S
O1407      H1421   0.990       .  S
O1407      H1428   0.990       .  S
O1408      C1412   1.281       .  A
O1409      C1412   1.281       .  A
O1410      H1420   0.990       .  S
O1411      H1424   0.990       .  S
C1412      C2722   1.464       .  S
Zr1435     O1437   2.410       .  S
Zr1435     O1438   2.411       .  S
Zr1435     O1441   2.402   1_455  S
Zr1435     O1443   2.377       .  S
Zr1435     O1444   2.378       .  S
Zr1435     O1445   2.397       .  S
Zr1435     O1446   2.392   1_455  S
Zr1435     O1436   2.441   1_455  S
O1436      H1492   0.991       .  S
O1436      H1500   0.990       .  S
O1437      C1457   1.279       .  A
O1438      C1459   1.279       .  A
O1439     Zr1449   2.448       .  S
O1439      C1458   1.287       .  A
O1440     Zr1448   2.426       .  S
O1440      C1459   1.282       .  A
O1441      C1458   1.278       .  A
O1442     Zr1450   2.408       .  S
O1442      C1457   1.279       .  A
O1443     Zr1448   2.386       .  S
O1443     Zr1450   2.378       .  S
O1444     Zr1449   2.387   1_455  S
O1444     Zr1450   2.377       .  S
O1444      H1479   0.966       .  S
O1445     Zr1448   2.401       .  S
O1445     Zr1465   2.389   1_455  S
O1445      H1482   0.966       .  S
O1446     Zr1449   2.389       .  S
O1446     Zr1465   2.392       .  S
Zr1447     O1466   2.416       .  S
Zr1447     O1474   2.442       .  S
Zr1447     O1462   2.433       .  S
Zr1447     O1453   2.394       .  S
Zr1447     O1454   2.403       .  S
Zr1447     O1455   2.379       .  S
Zr1447     O1456   2.391       .  S
Zr1447     O1472   2.442       .  S
Zr1448     O1461   2.426       .  S
Zr1448     O1454   2.398       .  S
Zr1448     O1455   2.394       .  S
Zr1448     O1467   2.437       .  S
Zr1448     O1460   2.435       .  S
Zr1449     O1475   2.429   1_655  S
Zr1449     O1453   2.399   1_655  S
Zr1449     O1456   2.397   1_655  S
Zr1449     O1451   2.435       .  S
Zr1449     O1473   2.439       .  S
Zr1450     O1453   2.382       .  S
Zr1450     O1454   2.394       .  S
Zr1450     O1476   2.436       .  S
Zr1450     O1477   2.436       .  S
Zr1450     O1452   2.435       .  S
O1451      H1488   0.990       .  S
O1452      H1483   0.990       .  S
O1452      H1497   0.990       .  S
O1454      H1480   0.966       .  S
O1455     Zr1465   2.379   1_455  S
O1456     Zr1465   2.387   1_455  S
O1456      H1481   0.966       .  S
C1457      C2658   1.465       .  S
C1458      C2594   1.481       .  S
C1459      C2581   1.468       .  S
O1460      H1496   0.989       .  S
O1461      C1463   1.283       .  A
O1462      C1463   1.284       .  A
C1463      C2610   1.487       .  S
O1464     Zr1465   2.437       .  S
O1464      H1493   0.990       .  S
Zr1465     O1470   2.410   1_655  S
Zr1465     O1468   2.436   1_655  S
Zr1465     O1469   2.437       .  S
O1466      C1471   1.278       .  A
O1467      H1484   0.990       .  S
O1467      H1499   0.990       .  S
O1468      H1485   0.990       .  S
O1469      H1489   0.990       .  S
O1469      H1498   0.990       .  S
O1470      C1471   1.279       .  A
C1471      C2674   1.468       .  S
O1472      H1491   0.990       .  S
O1472      H1495   0.990       .  S
O1473      H1487   0.990       .  S
O1473      H1494   0.990       .  S
O1474      C1478   1.284       .  A
O1475      C1478   1.284       .  A
O1476      H1486   0.990       .  S
O1477      H1490   0.990       .  S
C1478      C2626   1.476       .  S
Zr1501     O1503   2.422       .  S
Zr1501     O1504   2.428       .  S
Zr1501     O1507   2.423       .  S
Zr1501     O1509   2.382       .  S
Zr1501     O1510   2.379       .  S
O1502      H1558   0.990       .  S
O1502      H1566   0.990   1_545  S
O1503      C1523   1.281       .  A
O1504      C1525   1.283       .  A
O1505     Zr1515   2.433       .  S
O1506     Zr1514   2.423       .  S
O1506      C1525   1.285       .  A
O1507      C1524   1.283       .  A
O1508     Zr1516   2.402       .  S
O1508      C1523   1.279       .  A
O1509     Zr1514   2.389       .  S
O1509     Zr1516   2.376       .  S
O1510     Zr1516   2.376       .  S
O1510      H1545   0.966       .  S
O1511     Zr1531   2.395       .  S
O1511      H1548   0.966       .  S
O1512     Zr1515   2.388   1_565  S
O1512     Zr1531   2.391       .  S
Zr1513     O1532   2.409   1_545  S
Zr1513     O1540   2.418       .  S
Zr1513     O1528   2.431       .  S
Zr1513     O1521   2.375   1_545  S
Zr1513     O1522   2.386   1_545  S
Zr1514     O1527   2.434       .  S
Zr1514     O1520   2.389       .  S
Zr1514     O1526   2.435       .  S
Zr1515     O1541   2.429       .  S
Zr1515     O1522   2.386   1_545  S
Zr1515     O1517   2.434   1_545  S
Zr1516     O1519   2.389       .  S
Zr1516     O1520   2.386       .  S
Zr1516     O1542   2.435       .  S
Zr1516     O1543   2.436       .  S
Zr1516     O1518   2.437       .  S
O1517      H1554   0.990       .  S
O1518      H1549   0.990       .  S
O1518      H1563   0.990       .  S
O1520      H1546   0.966       .  S
O1521     Zr1531   2.374       .  S
O1522     Zr1531   2.378       .  S
O1522      H1547   0.966       .  S
C1523      C2546   1.477       .  S
C1525      C2517   1.480       .  S
O1526      H1562   0.990       .  S
O1528      C1529   1.284       .  A
C1529      C2690   1.485       .  S
O1530     Zr1531   2.440       .  S
O1530      H1559   0.990       .  S
Zr1531     O1536   2.422       .  S
Zr1531     O1534   2.436       .  S
Zr1531     O1535   2.439       .  S
O1532      C1537   1.281       .  A
O1533      H1550   0.990       .  S
O1533      H1565   0.990       .  S
O1534      H1551   0.990       .  S
O1535      H1555   0.990       .  S
O1535      H1564   0.989       .  S
O1536      C1537   1.283       .  A
C1537      C2530   1.466       .  S
O1538      H1557   0.989       .  S
O1538      H1561   0.989       .  S
O1539      H1553   0.990       .  S
O1539      H1560   0.990       .  S
O1540      C1544   1.280       .  A
O1541      C1544   1.284       .  A
O1542      H1552   0.990       .  S
O1543      H1556   0.990       .  S
C1544      C2562   1.465       .  S
Zr1567     O1569   2.417       .  S
Zr1567     O1570   2.432       .  S
Zr1567     O1573   2.419       .  S
Zr1567     O1575   2.382       .  S
Zr1567     O1576   2.379       .  S
Zr1567     O1577   2.399       .  S
Zr1567     O1578   2.393       .  S
Zr1567     O1568   2.434       .  S
O1568      H1624   0.990       .  S
O1568      H1632   0.990       .  S
O1569      C1589   1.281       .  A
O1570      C1591   1.283       .  A
O1571     Zr1581   2.435       .  S
O1571      C1590   1.283       .  A
O1572     Zr1580   2.429       .  S
O1572      C1591   1.284       .  A
O1573      C1590   1.282       .  A
O1574     Zr1582   2.413       .  S
O1574      C1589   1.281       .  A
O1575     Zr1580   2.391       .  S
O1575     Zr1582   2.377       .  S
O1576     Zr1581   2.382       .  S
O1576     Zr1582   2.383       .  S
O1576      H1611   0.966       .  S
O1577     Zr1580   2.398       .  S
O1577     Zr1597   2.396       .  S
O1577      H1614   0.966       .  S
O1578     Zr1581   2.388       .  S
O1578     Zr1597   2.396       .  S
Zr1579     O1598   2.408       .  S
Zr1579     O1606   2.428       .  S
Zr1579     O1594   2.425       .  S
Zr1579     O1585   2.387       .  S
Zr1579     O1586   2.401       .  S
Zr1579     O1587   2.375       .  S
Zr1579     O1588   2.386       .  S
Zr1579     O1604   2.440       .  S
Zr1580     O1593   2.427       .  S
Zr1580     O1586   2.400       .  S
Zr1580     O1587   2.388       .  S
Zr1580     O1599   2.435       .  S
Zr1580     O1592   2.436       .  S
Zr1581     O1607   2.415       .  S
Zr1581     O1585   2.389       .  S
Zr1581     O1588   2.390       .  S
Zr1581     O1583   2.435       .  S
Zr1581     O1605   2.440       .  S
Zr1582     O1585   2.378       .  S
Zr1582     O1586   2.393       .  S
Zr1582     O1608   2.436       .  S
Zr1582     O1609   2.436       .  S
Zr1582     O1584   2.435       .  S
O1583      H1620   0.990       .  S
O1584      H1615   0.990       .  S
O1584      H1629   0.990       .  S
O1586      H1612   0.966       .  S
O1587     Zr1597   2.372       .  S
O1588     Zr1597   2.385       .  S
O1588      H1613   0.966       .  S
C1589      C2533   1.465       .  S
C1590      C2613   1.487       .  S
C1591      C2482   1.478       .  S
O1592      H1628   0.990       .  S
O1593      C1595   1.284       .  A
O1594      C1595   1.281       .  A
C1595      C2597   1.478       .  S
O1596     Zr1597   2.439       .  S
O1596      H1625   0.991       .  S
Zr1597     O1602   2.418       .  S
Zr1597     O1600   2.438       .  S
Zr1597     O1601   2.438       .  S
O1598      C1603   1.278       .  A
O1599      H1616   0.990       .  S
O1599      H1631   0.990       .  S
O1600      H1617   0.990       .  S
O1601      H1621   0.990       .  S
O1601      H1630   0.990       .  S
O1602      C1603   1.282       .  A
C1603      C2549   1.479       .  S
O1604      H1623   0.990       .  S
O1604      H1627   0.990       .  S
O1605      H1619   0.990       .  S
O1605      H1626   0.990       .  S
O1606      C1610   1.283       .  A
O1607      C1610   1.282       .  A
O1608      H1618   0.990       .  S
O1609      H1622   0.990       .  S
C1610      C2498   1.463       .  S
Zr1633     O1635   2.422       .  S
Zr1633     O1636   2.431       .  S
Zr1633     O1639   2.416       .  S
Zr1633     O1641   2.382       .  S
Zr1633     O1642   2.380   1_554  S
Zr1633     O1643   2.396       .  S
Zr1633     O1644   2.397   1_455  S
Zr1633     O1634   2.441       .  S
O1634      H1690   0.990       .  S
O1634      H1698   0.991   1_455  S
O1635      C1655   1.282   1_554  A
O1636      C1657   1.283       .  A
O1637     Zr1647   2.447       .  S
O1637      C1656   1.287       .  A
O1638      C1657   1.283       .  A
O1639      C1656   1.282   1_554  A
O1640     Zr1648   2.420       .  S
O1640      C1655   1.282       .  A
O1641     Zr1648   2.378   1_554  S
O1642     Zr1647   2.384       .  S
O1642     Zr1648   2.374       .  S
O1642      H1677   0.966       .  S
O1643     Zr1663   2.385   1_455  S
O1643      H1680   0.965   1_455  S
O1644     Zr1647   2.389   1_654  S
O1644     Zr1663   2.389       .  S
Zr1645     O1664   2.429   1_445  S
Zr1645     O1660   2.445   1_545  S
Zr1645     O1653   2.371   1_446  S
Zr1645     O1670   2.437   1_545  S
Zr1646     O1659   2.425       .  S
Zr1646     O1653   2.386   1_455  S
Zr1646     O1665   2.434   1_455  S
Zr1646     O1658   2.433       .  S
Zr1647     O1673   2.424       .  S
Zr1647     O1651   2.395       .  S
Zr1647     O1654   2.400   1_455  S
Zr1647     O1649   2.435   1_455  S
Zr1647     O1671   2.439       .  S
Zr1648     O1651   2.386       .  S
Zr1648     O1652   2.394       .  S
Zr1648     O1674   2.436       .  S
Zr1648     O1675   2.435       .  S
Zr1648     O1650   2.436       .  S
O1649      H1686   0.990       .  S
O1650      H1681   0.990       .  S
O1650      H1695   0.990       .  S
O1652      H1678   0.966       .  S
O1654     Zr1663   2.383   1_556  S
O1654      H1679   0.966       .  S
C1655      C2418   1.477       .  S
C1656      C2453   1.487       .  S
C1657      C2725   1.470       .  S
O1659      C1661   1.285   1_554  A
O1660      C1661   1.286       .  A
C1661      C2437   1.499       .  S
O1662     Zr1663   2.440       .  S
O1662      H1691   0.990       .  S
Zr1663     O1667   2.438       .  S
O1664      C1669   1.282       .  A
O1665      H1682   0.990   1_655  S
O1665      H1697   0.989       .  S
O1666      H1683   0.990       .  S
O1667      H1696   0.990       .  S
O1668      C1669   1.281   1_554  A
C1669      C2405   1.487       .  S
O1670      H1693   0.990   1_565  S
O1671      H1685   0.990       .  S
O1671      H1692   0.990       .  S
O1672      C1676   1.284       .  A
O1673      C1676   1.281       .  A
O1674      H1684   0.990       .  S
O1675      H1688   0.990       .  S
C1676      C2466   1.489       .  S
Zr1699     O1701   2.440       .  S
Zr1699     O1702   2.446       .  S
Zr1699     O1705   2.440       .  S
Zr1699     O1707   2.383       .  S
Zr1699     O1708   2.381   1_554  S
Zr1699     O1709   2.407       .  S
Zr1699     O1710   2.404   1_455  S
Zr1699     O1700   2.438       .  S
O1700      H1756   0.990       .  S
O1700      H1764   0.990       .  S
O1701      C1721   1.285       .  A
O1702      C1723   1.287       .  A
O1703     Zr1713   2.422       .  S
O1703      C1722   1.284       .  A
O1704     Zr1712   2.433       .  S
O1704      C1723   1.285       .  A
O1705      C1722   1.286   1_554  A
O1706     Zr1714   2.421       .  S
O1706      C1721   1.282   1_556  A
O1707     Zr1712   2.397       .  S
O1707     Zr1714   2.376   1_554  S
O1708     Zr1713   2.385       .  S
O1708     Zr1714   2.374       .  S
O1708      H1743   0.965       .  S
O1709     Zr1712   2.402       .  S
O1709     Zr1729   2.391   1_455  S
O1709      H1746   0.965   1_455  S
O1710     Zr1713   2.385   1_654  S
O1710     Zr1729   2.390       .  S
Zr1711     O1730   2.438   1_455  S
Zr1711     O1738   2.427       .  S
Zr1711     O1726   2.429       .  S
Zr1711     O1717   2.395       .  S
Zr1711     O1718   2.408       .  S
Zr1711     O1719   2.373   1_456  S
Zr1711     O1720   2.381   1_455  S
Zr1711     O1736   2.441       .  S
Zr1712     O1725   2.438       .  S
Zr1712     O1718   2.398   1_554  S
Zr1712     O1719   2.386   1_455  S
Zr1712     O1731   2.435   1_455  S
Zr1712     O1724   2.435       .  S
Zr1713     O1739   2.422       .  S
Zr1713     O1717   2.388       .  S
Zr1713     O1720   2.389   1_455  S
Zr1713     O1715   2.435   1_455  S
Zr1713     O1737   2.438       .  S
Zr1714     O1717   2.392       .  S
Zr1714     O1718   2.399       .  S
Zr1714     O1740   2.435       .  S
Zr1714     O1741   2.435       .  S
Zr1714     O1716   2.438       .  S
O1715      H1752   0.990       .  S
O1716      H1747   0.990       .  S
O1716      H1761   0.990   1_556  S
O1718      H1744   0.966       .  S
O1719     Zr1729   2.376       .  S
O1720     Zr1729   2.385   1_556  S
O1720      H1745   0.966       .  S
C1721      C2370   1.488       .  S
C1722      C2434   1.498       .  S
C1723      C2629   1.484       .  S
O1724      H1760   0.990       .  S
O1725      C1727   1.286   1_554  A
O1726      C1727   1.282       .  A
C1727      C2450   1.485       .  S
O1728     Zr1729   2.441       .  S
O1728      H1757   0.990       .  S
Zr1729     O1734   2.417       .  S
Zr1729     O1732   2.437       .  S
Zr1729     O1733   2.442       .  S
O1730      C1735   1.285       .  A
O1731      H1748   0.990   1_655  S
O1731      H1763   0.990       .  S
O1732      H1749   0.990       .  S
O1733      H1753   0.990       .  S
O1733      H1762   0.989   1_554  S
O1734      C1735   1.281   1_554  A
C1735      C2354   1.480       .  S
O1736      H1755   0.990       .  S
O1736      H1759   0.990       .  S
O1737      H1751   0.990       .  S
O1737      H1758   0.990       .  S
O1738      C1742   1.284       .  A
O1739      C1742   1.282       .  A
O1740      H1750   0.990       .  S
O1741      H1754   0.990       .  S
C1742      C2389   1.478       .  S
Zr1765     O1767   2.436       .  S
Zr1765     O1768   2.437       .  S
Zr1765     O1771   2.436       .  S
Zr1765     O1773   2.385       .  S
Zr1765     O1774   2.378   1_554  S
Zr1765     O1775   2.410       .  S
Zr1765     O1776   2.402       .  S
Zr1765     O1766   2.441       .  S
O1766      H1822   0.990       .  S
O1766      H1830   0.990       .  S
O1767      C1787   1.284   1_554  A
O1768      C1789   1.284       .  A
O1769     Zr1779   2.430       .  S
O1769      C1788   1.283       .  A
O1770     Zr1778   2.423       .  S
O1770      C1789   1.281       .  A
O1771      C1788   1.286   1_554  A
O1772     Zr1780   2.424       .  S
O1772      C1787   1.281       .  A
O1773     Zr1778   2.398       .  S
O1773     Zr1780   2.378   1_554  S
O1774     Zr1779   2.390       .  S
O1774     Zr1780   2.380       .  S
O1774      H1809   0.966       .  S
O1775     Zr1778   2.407       .  S
O1775     Zr1795   2.387       .  S
O1775      H1812   0.965       .  S
O1776     Zr1779   2.390   1_554  S
O1776     Zr1795   2.393       .  S
Zr1777     O1796   2.443   1_545  S
Zr1777     O1792   2.439   1_545  S
Zr1777     O1785   2.369   1_546  S
Zr1777     O1802   2.437   1_545  S
Zr1778     O1784   2.396   1_554  S
Zr1779     O1805   2.420       .  S
Zr1779     O1783   2.387       .  S
Zr1779     O1786   2.399       .  S
Zr1779     O1781   2.435       .  S
Zr1779     O1803   2.440       .  S
Zr1780     O1783   2.385       .  S
Zr1780     O1784   2.406       .  S
Zr1780     O1806   2.435       .  S
Zr1780     O1807   2.436       .  S
Zr1780     O1782   2.437       .  S
O1781      H1818   0.990       .  S
O1782      H1813   0.990       .  S
O1782      H1827   0.990       .  S
O1784      H1810   0.966       .  S
O1786     Zr1795   2.384   1_556  S
O1786      H1811   0.966       .  S
C1787      C2357   1.481       .  S
C1788      C2322   1.489       .  S
C1789      C2565   1.470       .  S
O1791      C1793   1.286   1_554  A
O1792      C1793   1.283       .  A
C1793      C2306   1.492       .  S
O1794     Zr1795   2.438       .  S
O1794      H1823   0.990       .  S
Zr1795     O1799   2.439       .  S
O1796      C1801   1.285       .  A
O1797      H1814   0.990       .  S
O1797      H1829   0.990       .  S
O1798      H1815   0.990       .  S
O1799      H1828   0.990       .  S
O1800      C1801   1.280   1_554  A
C1801      C2373   1.486       .  S
O1802      H1825   0.990       .  S
O1803      H1817   0.990       .  S
O1803      H1824   0.990       .  S
O1804      C1808   1.282       .  A
O1805      C1808   1.281       .  A
O1806      H1816   0.990       .  S
O1807      H1820   0.990       .  S
C1808      C2338   1.465       .  S
Zr1831     O1833   2.423       .  S
Zr1831     O1834   2.428       .  S
Zr1831     O1837   2.420       .  S
Zr1831     O1839   2.377       .  S
Zr1831     O1840   2.381   1_554  S
Zr1831     O1841   2.397       .  S
Zr1831     O1842   2.398       .  S
Zr1831     O1832   2.438       .  S
O1832      H1888   0.990       .  S
O1832      H1896   0.990       .  S
O1833      C1853   1.282   1_554  A
O1834      C1855   1.285       .  A
O1835     Zr1845   2.445       .  S
O1835      C1854   1.287       .  A
O1836     Zr1844   2.420       .  S
O1836      C1855   1.281       .  A
O1837      C1854   1.282   1_554  A
O1838     Zr1846   2.423       .  S
O1838      C1853   1.283       .  A
O1839     Zr1844   2.390       .  S
O1839     Zr1846   2.374   1_554  S
O1840     Zr1845   2.382       .  S
O1840     Zr1846   2.376       .  S
O1840      H1875   0.966       .  S
O1841     Zr1844   2.396       .  S
O1841     Zr1861   2.396       .  S
O1841      H1878   0.966       .  S
O1842     Zr1845   2.383   1_554  S
O1842     Zr1861   2.389       .  S
Zr1843     O1862   2.430       .  S
Zr1843     O1870   2.429       .  S
Zr1843     O1858   2.447       .  S
Zr1843     O1849   2.399       .  S
Zr1843     O1850   2.405       .  S
Zr1843     O1851   2.374   1_556  S
Zr1843     O1852   2.387       .  S
Zr1843     O1868   2.441       .  S
Zr1844     O1857   2.424       .  S
Zr1844     O1850   2.397   1_554  S
Zr1844     O1851   2.388       .  S
Zr1844     O1863   2.434       .  S
Zr1844     O1856   2.433       .  S
Zr1845     O1871   2.426       .  S
Zr1845     O1849   2.394       .  S
Zr1845     O1852   2.395       .  S
Zr1845     O1847   2.436       .  S
Zr1845     O1869   2.439       .  S
Zr1846     O1849   2.387       .  S
Zr1846     O1850   2.397       .  S
Zr1846     O1872   2.435       .  S
Zr1846     O1873   2.436       .  S
Zr1846     O1848   2.436       .  S
O1847      H1884   0.990       .  S
O1848      H1879   0.990       .  S
O1848      H1893   0.990       .  S
O1850      H1876   0.966       .  S
O1851     Zr1861   2.382       .  S
O1852     Zr1861   2.386   1_556  S
O1852      H1877   0.966       .  S
C1853      C2402   1.485       .  S
C1854      C2309   1.487       .  S
C1855      C2501   1.493       .  S
O1856      H1892   0.990       .  S
O1857      C1859   1.282       .  A
O1858      C1859   1.286   1_556  A
C1859      C2325   1.488   1_554  S
O1860     Zr1861   2.440       .  S
O1860      H1889   0.990       .  S
Zr1861     O1866   2.414       .  S
Zr1861     O1864   2.437       .  S
Zr1861     O1865   2.442       .  S
O1862      C1867   1.283       .  A
O1863      H1880   0.990       .  S
O1863      H1895   0.990       .  S
O1864      H1881   0.990       .  S
O1865      H1885   0.990       .  S
O1865      H1894   0.989   1_554  S
O1866      C1867   1.281   1_554  A
C1867      C2421   1.480       .  S
O1868      H1887   0.990       .  S
O1868      H1891   0.990       .  S
O1869      H1883   0.990       .  S
O1869      H1890   0.990       .  S
O1870      C1874   1.286       .  A
O1871      C1874   1.283       .  A
O1872      H1882   0.990       .  S
O1873      H1886   0.990       .  S
C1874      C2293   1.492       .  S
Zr1897     O1899   2.423       .  S
Zr1897     O1900   2.434   1_655  S
Zr1897     O1903   2.426       .  S
Zr1897     O1905   2.380   1_655  S
Zr1897     O1906   2.380       .  S
Zr1897     O1907   2.400   1_655  S
Zr1897     O1908   2.398   1_655  S
Zr1897     O1898   2.440       .  S
O1898      H1954   0.991       .  S
O1898      H1962   0.990       .  S
O1899      C1919   1.282       .  A
O1900      C1921   1.285       .  A
O1901     Zr1911   2.422   1_655  S
O1901      C1920   1.281       .  A
O1902     Zr1910   2.411       .  S
O1902      C1921   1.280       .  A
O1903      C1920   1.285       .  A
O1904     Zr1912   2.420   1_655  S
O1904      C1919   1.282       .  A
O1905     Zr1910   2.388       .  S
O1905     Zr1912   2.370       .  S
O1906     Zr1911   2.385   1_655  S
O1906     Zr1912   2.378   1_655  S
O1906      H1941   0.966       .  S
O1907     Zr1910   2.400       .  S
O1907     Zr1927   2.393       .  S
O1907      H1944   0.966       .  S
O1908     Zr1911   2.390       .  S
O1908     Zr1927   2.389       .  S
Zr1909     O1928   2.424       .  S
Zr1909     O1936   2.445       .  S
Zr1909     O1924   2.442       .  S
Zr1909     O1915   2.394       .  S
Zr1909     O1916   2.406       .  S
Zr1909     O1917   2.378       .  S
Zr1909     O1918   2.385       .  S
Zr1909     O1934   2.438       .  S
Zr1910     O1923   2.418       .  S
Zr1910     O1916   2.396       .  S
Zr1910     O1917   2.387       .  S
Zr1910     O1929   2.436       .  S
Zr1910     O1922   2.435       .  S
Zr1911     O1937   2.413       .  S
Zr1911     O1915   2.390       .  S
Zr1911     O1918   2.390       .  S
Zr1911     O1913   2.435       .  S
Zr1911     O1935   2.440   1_455  S
Zr1912     O1915   2.388       .  S
Zr1912     O1916   2.394       .  S
Zr1912     O1938   2.433   1_455  S
Zr1912     O1939   2.435       .  S
Zr1912     O1914   2.437       .  S
O1913      H1950   0.990   1_455  S
O1914      H1959   0.990       .  S
O1916      H1942   0.966       .  S
O1917     Zr1927   2.378       .  S
O1918     Zr1927   2.388       .  S
O1918      H1943   0.966       .  S
C1920      C2258   1.489       .  S
C1921      C2642   1.476       .  S
O1922      H1958   0.990       .  S
O1923      C1925   1.282       .  A
O1924      C1925   1.284       .  A
C1925      C2277   1.479       .  S
O1926     Zr1927   2.440       .  S
O1926      H1955   0.990       .  S
Zr1927     O1932   2.404       .  S
Zr1927     O1930   2.438       .  S
Zr1927     O1931   2.441       .  S
O1928      C1933   1.281       .  A
O1929      H1946   0.990       .  S
O1929      H1961   0.990       .  S
O1930      H1947   0.990       .  S
O1931      H1951   0.990       .  S
O1931      H1960   0.990       .  S
O1932      C1933   1.279       .  A
C1933      C2245   1.477       .  S
O1934      H1953   0.990       .  S
O1934      H1957   0.989       .  S
O1935      H1949   0.990       .  S
O1935      H1956   0.990       .  S
O1936      C1940   1.287       .  A
O1937      C1940   1.281       .  A
O1939      H1952   0.990       .  S
C1940      C2469   1.479       .  S
Zr1963     O1965   2.419       .  S
Zr1963     O1966   2.431   1_655  S
Zr1963     O1969   2.429       .  S
Zr1963     O1971   2.380   1_655  S
Zr1963     O1972   2.379       .  S
Zr1963     O1973   2.398   1_655  S
Zr1963     O1974   2.396   1_655  S
Zr1963     O1964   2.439       .  S
O1964      H2020   0.990       .  S
O1964      H2028   0.990       .  S
O1965      C1985   1.281       .  A
O1966      C1987   1.283       .  A
O1967     Zr1977   2.420       .  S
O1967      C1986   1.281       .  A
O1968     Zr1976   2.403       .  S
O1968      C1987   1.280       .  A
O1969      C1986   1.285       .  A
O1970     Zr1978   2.434       .  S
O1970      C1985   1.285       .  A
O1971     Zr1976   2.391       .  S
O1971     Zr1978   2.374   1_455  S
O1972     Zr1977   2.383       .  S
O1972     Zr1978   2.374       .  S
O1972      H2007   0.966       .  S
O1973     Zr1976   2.396       .  S
O1973     Zr1993   2.386       .  S
O1973      H2010   0.966       .  S
O1974     Zr1977   2.386   1_455  S
O1974     Zr1993   2.386       .  S
Zr1975     O1994   2.437       .  S
Zr1975     O2002   2.444       .  S
Zr1975     O1990   2.431       .  S
Zr1975     O1981   2.402       .  S
Zr1975     O1982   2.407       .  S
Zr1975     O1983   2.377       .  S
Zr1975     O1984   2.382       .  S
Zr1975     O2000   2.443       .  S
Zr1976     O1989   2.416       .  S
Zr1976     O1982   2.389       .  S
Zr1976     O1983   2.383       .  S
Zr1976     O1995   2.437       .  S
Zr1976     O1988   2.436       .  S
Zr1977     O2003   2.408   1_655  S
Zr1977     O1981   2.394   1_655  S
Zr1977     O1984   2.393   1_655  S
Zr1977     O1979   2.435       .  S
Zr1977     O2001   2.439       .  S
Zr1978     O1981   2.397   1_655  S
Zr1978     O1982   2.398   1_655  S
Zr1978     O2004   2.434       .  S
Zr1978     O2005   2.437   1_655  S
Zr1978     O1980   2.437   1_655  S
O1979      H2016   0.990       .  S
O1980      H2011   0.990   1_455  S
O1980      H2025   0.990       .  S
O1982      H2008   0.966       .  S
O1983     Zr1993   2.378       .  S
O1984     Zr1993   2.387       .  S
O1984      H2009   0.966       .  S
C1985      C2162   1.483       .  S
C1986      C2197   1.490       .  S
C1987      C2578   1.469       .  S
O1988      H2024   0.990       .  S
O1989      C1991   1.281       .  A
O1990      C1991   1.284       .  A
C1991      C2213   1.471       .  S
O1992     Zr1993   2.440       .  S
O1992      H2021   0.990       .  S
Zr1993     O1998   2.399       .  S
Zr1993     O1996   2.436       .  S
Zr1993     O1997   2.442       .  S
O1994      C1999   1.285       .  A
O1995      H2012   0.990       .  S
O1995      H2027   0.990       .  S
O1996      H2013   0.989       .  S
O1997      H2017   0.990       .  S
O1997      H2026   0.989       .  S
O1998      C1999   1.277       .  A
C1999      C2181   1.479       .  S
O2000      H2019   0.991       .  S
O2000      H2023   0.990       .  S
O2001      H2015   0.990       .  S
O2001      H2022   0.990       .  S
O2002      C2006   1.284       .  A
O2003      C2006   1.279       .  A
O2004      H2014   0.990       .  S
O2005      H2018   0.990       .  S
C2006      C2386   1.470       .  S
Zr2029     O2031   2.430       .  S
Zr2029     O2032   2.435       .  S
Zr2029     O2035   2.430       .  S
Zr2029     O2037   2.378       .  S
Zr2029     O2038   2.378       .  S
Zr2029     O2039   2.405       .  S
Zr2029     O2040   2.402       .  S
Zr2029     O2030   2.440       .  S
O2030      H2086   0.990       .  S
O2030      H2094   0.990       .  S
O2031      C2051   1.285       .  A
O2032      C2053   1.285       .  A
O2033     Zr2043   2.422       .  S
O2033      C2052   1.283       .  A
O2034     Zr2042   2.416       .  S
O2034      C2053   1.280       .  A
O2035      C2052   1.284       .  A
O2036     Zr2044   2.400       .  S
O2036      C2051   1.276       .  A
O2037     Zr2042   2.388       .  S
O2037     Zr2044   2.378       .  S
O2038     Zr2043   2.379       .  S
O2038     Zr2044   2.377       .  S
O2038      H2073   0.966       .  S
O2039     Zr2042   2.393       .  S
O2039     Zr2059   2.404       .  S
O2039      H2076   0.966       .  S
O2040     Zr2043   2.386       .  S
O2040     Zr2059   2.396       .  S
Zr2041     O2060   2.421       .  S
Zr2041     O2068   2.433       .  S
Zr2041     O2056   2.436       .  S
Zr2041     O2047   2.392       .  S
Zr2041     O2048   2.403       .  S
Zr2041     O2049   2.377       .  S
Zr2041     O2050   2.383       .  S
Zr2041     O2066   2.440       .  S
Zr2042     O2055   2.409       .  S
Zr2042     O2048   2.399       .  S
Zr2042     O2049   2.385       .  S
Zr2042     O2061   2.435       .  S
Zr2042     O2054   2.434       .  S
Zr2043     O2069   2.404       .  S
Zr2043     O2047   2.390       .  S
Zr2043     O2050   2.391       .  S
Zr2043     O2045   2.435       .  S
Zr2043     O2067   2.439       .  S
Zr2044     O2047   2.383       .  S
Zr2044     O2048   2.387       .  S
Zr2044     O2070   2.435       .  S
Zr2044     O2071   2.435       .  S
Zr2044     O2046   2.436       .  S
O2045      H2082   0.990       .  S
O2046      H2091   0.990       .  S
O2048      H2074   0.966       .  S
O2049     Zr2059   2.373       .  S
O2050     Zr2059   2.379       .  S
O2050      H2075   0.966       .  S
C2052      C2274   1.480       .  S
C2053      C2514   1.486       .  S
O2054      H2090   0.990       .  S
O2055      C2057   1.279       .  A
O2056      C2057   1.285       .  A
C2057      C2261   1.485       .  S
O2058     Zr2059   2.439       .  S
O2058      H2087   0.990       .  S
Zr2059     O2064   2.434       .  S
Zr2059     O2062   2.437       .  S
Zr2059     O2063   2.439       .  S
O2060      C2065   1.281       .  A
O2061      H2078   0.990       .  S
O2061      H2093   0.989       .  S
O2062      H2079   0.990       .  S
O2063      H2083   0.990       .  S
O2063      H2092   0.990       .  S
O2064      C2065   1.285       .  A
C2065      C2165   1.484       .  S
O2066      H2085   0.990       .  S
O2066      H2089   0.990       .  S
O2067      H2081   0.990       .  S
O2067      H2088   0.990       .  S
O2068      C2072   1.284       .  A
O2069      C2072   1.280       .  A
O2071      H2084   0.990       .  S
C2072      C2341   1.471       .  S
Zr2095     O2097   2.429       .  S
Zr2095     O2098   2.454       .  S
Zr2095     O2101   2.430       .  S
Zr2095     O2103   2.377       .  S
Zr2095     O2104   2.384       .  S
Zr2095     O2105   2.399       .  S
Zr2095     O2106   2.404       .  S
Zr2095     O2096   2.440       .  S
O2096      H2152   0.990       .  S
O2096      H2160   0.990       .  S
O2097      C2117   1.283       .  A
O2098      C2119   1.289       .  A
O2099     Zr2109   2.429       .  S
O2099      C2118   1.284       .  A
O2100     Zr2108   2.403       .  S
O2100      C2119   1.278       .  A
O2101      C2118   1.285       .  A
O2102     Zr2110   2.401       .  S
O2102      C2117   1.279       .  A
O2103     Zr2108   2.389       .  S
O2103     Zr2110   2.375       .  S
O2104     Zr2109   2.385       .  S
O2104     Zr2110   2.377       .  S
O2104      H2139   0.966       .  S
O2105     Zr2108   2.396       .  S
O2105     Zr2125   2.393       .  S
O2105      H2142   0.966       .  S
O2106     Zr2109   2.389       .  S
O2106     Zr2125   2.392       .  S
Zr2107     O2126   2.427       .  S
Zr2107     O2134   2.434       .  S
Zr2107     O2122   2.444       .  S
Zr2107     O2113   2.392       .  S
Zr2107     O2114   2.402       .  S
Zr2107     O2115   2.376       .  S
Zr2107     O2116   2.391       .  S
Zr2107     O2132   2.439       .  S
Zr2108     O2121   2.410       .  S
Zr2108     O2114   2.396       .  S
Zr2108     O2115   2.385       .  S
Zr2108     O2127   2.434       .  S
Zr2108     O2120   2.434       .  S
Zr2109     O2135   2.420       .  S
Zr2109     O2113   2.390       .  S
Zr2109     O2116   2.393       .  S
Zr2109     O2111   2.435       .  S
Zr2109     O2133   2.440       .  S
Zr2110     O2113   2.380       .  S
Zr2110     O2114   2.385       .  S
Zr2110     O2136   2.436       .  S
Zr2110     O2137   2.435       .  S
Zr2110     O2112   2.437       .  S
O2111      H2148   0.990       .  S
O2112      H2143   0.990       .  S
O2112      H2157   0.990       .  S
O2114      H2140   0.965       .  S
O2115     Zr2125   2.378       .  S
O2116     Zr2125   2.385       .  S
O2116      H2141   0.966       .  S
C2117      C2242   1.476       .  S
C2118      C2210   1.475       .  S
C2119      C2485   1.481       .  S
O2120      H2156   0.990       .  S
O2121      C2123   1.279       .  A
O2122      C2123   1.286       .  A
C2123      C2194   1.485       .  S
O2124     Zr2125   2.435       .  S
O2124      H2153   0.990       .  S
Zr2125     O2130   2.416       .  S
Zr2125     O2128   2.435       .  S
Zr2125     O2129   2.439       .  S
O2126      C2131   1.282       .  A
O2127      H2144   0.990       .  S
O2127      H2159   0.989       .  S
O2128      H2145   0.990       .  S
O2129      H2149   0.990       .  S
O2129      H2158   0.989       .  S
O2130      C2131   1.282       .  A
C2131      C2229   1.481       .  S
O2132      H2151   0.991       .  S
O2132      H2155   0.990       .  S
O2133      H2147   0.990       .  S
O2133      H2154   0.990       .  S
O2134      C2138   1.284       .  A
O2135      C2138   1.283       .  A
O2136      H2146   0.990       .  S
O2137      H2150   0.990       .  S
C2138      C2290   1.475       .  S
C2161      C2162   1.401       .  A
C2161      C2166   1.403       .  A
C2161      H2168   1.084       .  S
C2162      C2163   1.418       .  A
C2163      C2164   1.404       .  A
C2163      C2170   1.506       .  S
C2164      C2165   1.402       .  A
C2164      H2169   1.084       .  S
C2165      C2166   1.418       .  A
C2166      C2167   1.504       .  S
C2167      H2171   1.110       .  S
C2167      H2172   1.111       .  S
C2167      H2173   1.109       .  S
C2170      H2174   1.110       .  S
C2170      H2175   1.111       .  S
C2170      H2176   1.111       .  S
C2177      C2178   1.403       .  A
C2177      C2182   1.399       .  A
C2177      H2184   1.082       .  S
C2178      C2179   1.420       .  A
C2179      C2180   1.404       .  A
C2179      C2186   1.509       .  S
C2180      C2181   1.403       .  A
C2180      H2185   1.084       .  S
C2181      C2182   1.416       .  A
C2182      C2183   1.509       .  S
C2183      H2187   1.109       .  S
C2183      H2188   1.110       .  S
C2183      H2189   1.109       .  S
C2186      H2190   1.109       .  S
C2186      H2191   1.111       .  S
C2186      H2192   1.111       .  S
C2193      C2194   1.402       .  A
C2193      C2198   1.401       .  A
C2193      H2200   1.082       .  S
C2194      C2195   1.418       .  A
C2195      C2196   1.403       .  A
C2195      C2202   1.509       .  S
C2196      C2197   1.406       .  A
C2196      H2201   1.081       .  S
C2197      C2198   1.421       .  A
C2198      C2199   1.509       .  S
C2199      H2203   1.111       .  S
C2199      H2204   1.110       .  S
C2199      H2205   1.109       .  S
C2202      H2206   1.109       .  S
C2202      H2207   1.110       .  S
C2202      H2208   1.111       .  S
C2209      C2210   1.404       .  A
C2209      C2214   1.402       .  A
C2209      H2216   1.085       .  S
C2210      C2211   1.415       .  A
C2211      C2212   1.402       .  A
C2211      C2218   1.508       .  S
C2212      C2213   1.403       .  A
C2212      H2217   1.085       .  S
C2213      C2214   1.414       .  A
C2214      C2215   1.509       .  S
C2215      H2219   1.111       .  S
C2215      H2220   1.107       .  S
C2215      H2221   1.110       .  S
C2218      H2222   1.110       .  S
C2218      H2223   1.107       .  S
C2218      H2224   1.111       .  S
C2225      C2226   1.404       .  A
C2225      C2230   1.403       .  A
C2225      H2232   1.084       .  S
C2226      C2227   1.417       .  A
C2227      C2228   1.402       .  A
C2228      C2229   1.403       .  A
C2228      H2233   1.084       .  S
C2229      C2230   1.417       .  A
C2230      C2231   1.507       .  S
C2231      H2235   1.111       .  S
C2231      H2236   1.111       .  S
C2231      H2237   1.109       .  S
C2234      H2238   1.110       .  S
C2234      H2239   1.111       .  S
C2241      C2242   1.406       .  A
C2241      C2246   1.399       .  A
C2241      H2248   1.084       .  S
C2242      C2243   1.413       .  A
C2243      C2244   1.399       .  A
C2243      C2250   1.509       .  S
C2244      C2245   1.406       .  A
C2244      H2249   1.084       .  S
C2245      C2246   1.414       .  A
C2246      C2247   1.509       .  S
C2247      H2251   1.111       .  S
C2247      H2252   1.109       .  S
C2247      H2253   1.110       .  S
C2250      H2254   1.110       .  S
C2250      H2255   1.109       .  S
C2250      H2256   1.111       .  S
C2257      C2258   1.405       .  A
C2257      C2262   1.400       .  A
C2257      H2264   1.081       .  S
C2258      C2259   1.419       .  A
C2259      C2260   1.401       .  A
C2259      C2266   1.509       .  S
C2260      C2261   1.404       .  A
C2260      H2265   1.080       .  S
C2261      C2262   1.418       .  A
C2262      C2263   1.510       .  S
C2263      H2267   1.110       .  S
C2263      H2268   1.109       .  S
C2263      H2269   1.111       .  S
C2266      H2270   1.111       .  S
C2266      H2271   1.109       .  S
C2266      H2272   1.110       .  S
C2273      C2274   1.404       .  A
C2273      C2278   1.403       .  A
C2273      H2280   1.084       .  S
C2274      C2275   1.414       .  A
C2275      C2276   1.403       .  A
C2275      C2282   1.505       .  S
C2276      C2277   1.404       .  A
C2276      H2281   1.084       .  S
C2277      C2278   1.414       .  A
C2278      C2279   1.508       .  S
C2279      H2283   1.111       .  S
C2279      H2284   1.107       .  S
C2279      H2285   1.110       .  S
C2282      H2286   1.111       .  S
C2282      H2287   1.109       .  S
C2282      H2288   1.110       .  S
C2289      C2290   1.401       .  A
C2289      C2294   1.405       .  A
C2289      H2296   1.084       .  S
C2290      C2291   1.412       .  A
C2291      C2292   1.400       .  A
C2291      C2298   1.508       .  S
C2292      C2293   1.408       .  A
C2292      H2297   1.083       .  S
C2293      C2294   1.422       .  A
C2294      C2295   1.508       .  S
C2295      H2299   1.111       .  S
C2295      H2300   1.109       .  S
C2295      H2301   1.110       .  S
C2298      H2302   1.106       .  S
C2298      H2303   1.110       .  S
C2298      H2304   1.111       .  S
C2305      C2306   1.405   1_554  A
C2305      C2310   1.404       .  A
C2305      H2312   1.084       .  S
C2306      C2307   1.419       .  A
C2307      C2308   1.405       .  A
C2307      C2314   1.505       .  S
C2308      C2309   1.403       .  A
C2308      H2313   1.084       .  S
C2309      C2310   1.417   1_556  A
C2310      C2311   1.506       .  S
C2311      H2315   1.111       .  S
C2311      H2316   1.108       .  S
C2311      H2317   1.110       .  S
C2314      H2318   1.110       .  S
C2314      H2319   1.106       .  S
C2314      H2320   1.111       .  S
C2321      C2322   1.404   1_554  A
C2321      C2326   1.404       .  A
C2321      H2328   1.084       .  S
C2322      C2323   1.419       .  A
C2323      C2324   1.407       .  A
C2323      C2330   1.508       .  S
C2324      C2325   1.405       .  A
C2324      H2329   1.084       .  S
C2325      C2326   1.418   1_556  A
C2326      C2327   1.508       .  S
C2327      H2331   1.111       .  S
C2327      H2332   1.109       .  S
C2327      H2333   1.111       .  S
C2330      H2334   1.111       .  S
C2330      H2335   1.109       .  S
C2330      H2336   1.111       .  S
C2337      C2338   1.403       .  A
C2337      C2342   1.403       .  A
C2337      H2344   1.084       .  S
C2338      C2339   1.409       .  A
C2339      C2340   1.399       .  A
C2339      C2346   1.508       .  S
C2340      C2341   1.405       .  A
C2340      H2345   1.084       .  S
C2341      C2342   1.413       .  A
C2342      C2343   1.508       .  S
C2343      H2347   1.111       .  S
C2343      H2348   1.110       .  S
C2343      H2349   1.110       .  S
C2353      C2354   1.402       .  A
C2353      C2358   1.404       .  A
C2353      H2360   1.084       .  S
C2354      C2355   1.417   1_556  A
C2355      C2356   1.403       .  A
C2355      C2362   1.508       .  S
C2356      C2357   1.402   1_554  A
C2356      H2361   1.084       .  S
C2357      C2358   1.417       .  A
C2358      C2359   1.507       .  S
C2359      H2363   1.111       .  S
C2359      H2364   1.111       .  S
C2359      H2365   1.108       .  S
C2362      H2366   1.108       .  S
C2362      H2367   1.111       .  S
C2362      H2368   1.111       .  S
C2369      C2370   1.407   1_556  A
C2369      C2374   1.405       .  A
C2369      H2376   1.084       .  S
C2370      C2371   1.418       .  A
C2371      C2372   1.404       .  A
C2371      C2378   1.509       .  S
C2372      C2373   1.405   1_554  A
C2372      H2377   1.084       .  S
C2373      C2374   1.416       .  A
C2374      C2375   1.509       .  S
C2375      H2379   1.111       .  S
C2375      H2380   1.111       .  S
C2375      H2381   1.109       .  S
C2378      H2382   1.110       .  S
C2378      H2383   1.110       .  S
C2378      H2384   1.111       .  S
C2385      C2386   1.399       .  A
C2385      C2390   1.404       .  A
C2385      H2392   1.084       .  S
C2386      C2387   1.413   1_455  A
C2387      C2388   1.400       .  A
C2387      C2394   1.508       .  S
C2388      C2389   1.402   1_655  A
C2388      H2393   1.084       .  S
C2389      C2390   1.418       .  A
C2390      C2391   1.507       .  S
C2391      H2395   1.111       .  S
C2391      H2396   1.110       .  S
C2391      H2397   1.109       .  S
C2394      H2398   1.111       .  S
C2394      H2399   1.108       .  S
C2394      H2400   1.111       .  S
C2401      C2402   1.407       .  A
C2401      C2406   1.403       .  A
C2401      H2408   1.084       .  S
C2402      C2403   1.416   1_556  A
C2403      C2404   1.402       .  A
C2403      C2410   1.510       .  S
C2404      C2405   1.407   1_554  A
C2404      H2409   1.084       .  S
C2405      C2406   1.417       .  A
C2406      C2407   1.509       .  S
C2407      H2411   1.111       .  S
C2407      H2412   1.110       .  S
C2407      H2413   1.111       .  S
C2410      H2414   1.111       .  S
C2410      H2415   1.109       .  S
C2410      H2416   1.111       .  S
C2417      C2418   1.405       .  A
C2417      C2422   1.401       .  A
C2417      H2424   1.084       .  S
C2418      C2419   1.414   1_556  A
C2419      C2420   1.403       .  A
C2419      C2426   1.509       .  S
C2420      C2421   1.406   1_554  A
C2420      H2425   1.084       .  S
C2421      C2422   1.415       .  A
C2422      C2423   1.509       .  S
C2423      H2427   1.111       .  S
C2423      H2428   1.109       .  S
C2423      H2429   1.110       .  S
C2426      H2430   1.111       .  S
C2426      H2431   1.109       .  S
C2426      H2432   1.111       .  S
C2433      C2434   1.408       .  A
C2433      C2438   1.404       .  A
C2433      H2440   1.084       .  S
C2434      C2435   1.419   1_556  A
C2435      C2436   1.405       .  A
C2435      C2442   1.507       .  S
C2436      C2437   1.408   1_554  A
C2436      H2441   1.083       .  S
C2437      C2438   1.420       .  A
C2438      C2439   1.505       .  S
C2439      H2443   1.111       .  S
C2439      H2444   1.110       .  S
C2439      H2445   1.109       .  S
C2442      H2446   1.109       .  S
C2442      H2447   1.109       .  S
C2442      H2448   1.111       .  S
C2449      C2450   1.403   1_554  A
C2449      C2454   1.404       .  A
C2449      H2456   1.084       .  S
C2450      C2451   1.418   1_455  A
C2451      C2452   1.407       .  A
C2451      C2458   1.509       .  S
C2452      C2453   1.405   1_655  A
C2452      H2457   1.084       .  S
C2453      C2454   1.419   1_556  A
C2454      C2455   1.511       .  S
C2455      H2459   1.111       .  S
C2455      H2460   1.111   1_554  S
C2455      H2461   1.109       .  S
C2458      H2462   1.108       .  S
C2458      H2463   1.111       .  S
C2458      H2464   1.111       .  S
C2465      C2466   1.406       .  A
C2465      C2470   1.398       .  A
C2465      H2472   1.081       .  S
C2466      C2467   1.419       .  A
C2467      C2468   1.407       .  A
C2467      C2474   1.508   1_455  S
C2468      C2469   1.405       .  A
C2468      H2473   1.084       .  S
C2469      C2470   1.412       .  A
C2470      C2471   1.507       .  S
C2471      H2475   1.111       .  S
C2471      H2476   1.105       .  S
C2471      H2477   1.110       .  S
C2474      H2478   1.108   1_655  S
C2474      H2479   1.111       .  S
C2474      H2480   1.111       .  S
C2481      C2482   1.401       .  A
C2481      C2486   1.403       .  A
C2481      H2488   1.084       .  S
C2482      C2483   1.415       .  A
C2483      C2484   1.401       .  A
C2483      C2490   1.504       .  S
C2484      C2485   1.401       .  A
C2484      H2489   1.084       .  S
C2485      C2486   1.420       .  A
C2486      C2487   1.508       .  S
C2487      H2491   1.111       .  S
C2487      H2492   1.109       .  S
C2487      H2493   1.110       .  S
C2490      H2494   1.111       .  S
C2490      H2495   1.105       .  S
C2490      H2496   1.111       .  S
C2497      C2498   1.395       .  A
C2497      C2502   1.404       .  A
C2497      H2504   1.085       .  S
C2498      C2499   1.408       .  A
C2499      C2500   1.398       .  A
C2499      C2506   1.509       .  S
C2500      C2501   1.409       .  A
C2500      H2505   1.084       .  S
C2501      C2502   1.427       .  A
C2502      C2503   1.507       .  S
C2503      H2507   1.111       .  S
C2503      H2508   1.110       .  S
C2503      H2509   1.108       .  S
C2506      H2510   1.110       .  S
C2506      H2511   1.109       .  S
C2506      H2512   1.111       .  S
C2513      C2514   1.405       .  A
C2513      C2518   1.402       .  A
C2513      H2520   1.084       .  S
C2514      C2515   1.420       .  A
C2515      C2516   1.400       .  A
C2515      C2522   1.508       .  S
C2516      C2517   1.401       .  A
C2516      H2521   1.084       .  S
C2517      C2518   1.416       .  A
C2518      C2519   1.504       .  S
C2519      H2523   1.111       .  S
C2519      H2524   1.110       .  S
C2519      H2525   1.106       .  S
C2522      H2526   1.109       .  S
C2522      H2527   1.110       .  S
C2529      C2530   1.403       .  A
C2529      C2534   1.398       .  A
C2529      H2536   1.085       .  S
C2530      C2531   1.413       .  A
C2531      C2532   1.398       .  A
C2531      C2538   1.508       .  S
C2532      C2533   1.403       .  A
C2532      H2537   1.085       .  S
C2533      C2534   1.413       .  A
C2534      C2535   1.509       .  S
C2535      H2539   1.111       .  S
C2535      H2540   1.110       .  S
C2535      H2541   1.106       .  S
C2538      H2542   1.107       .  S
C2538      H2543   1.110       .  S
C2538      H2544   1.111       .  S
C2545      C2546   1.405       .  A
C2545      C2550   1.397       .  A
C2545      H2552   1.084       .  S
C2546      C2547   1.414       .  A
C2547      C2548   1.401       .  A
C2547      C2554   1.509       .  S
C2548      C2549   1.406       .  A
C2548      H2553   1.084       .  S
C2549      C2550   1.417       .  A
C2550      C2551   1.511       .  S
C2551      H2555   1.111       .  S
C2551      H2556   1.110       .  S
C2551      H2557   1.110       .  S
C2554      H2558   1.111       .  S
C2554      H2559   1.110       .  S
C2554      H2560   1.111       .  S
C2561      C2566   1.402       .  A
C2561      H2568   1.084       .  S
C2562      C2563   1.409   1_545  A
C2563      C2564   1.402       .  A
C2563      C2570   1.507       .  S
C2564      H2569   1.085       .  S
C2565      C2566   1.411       .  A
C2566      C2567   1.507       .  S
C2567      H2571   1.111       .  S
C2567      H2572   1.109       .  S
C2567      H2573   1.110       .  S
C2570      H2574   1.110       .  S
C2570      H2575   1.111       .  S
C2570      H2576   1.111       .  S
C2577      C2578   1.405       .  A
C2577      C2582   1.399       .  A
C2577      H2584   1.084       .  S
C2578      C2579   1.412       .  A
C2579      C2580   1.399       .  A
C2579      C2586   1.509   1_455  S
C2580      C2581   1.404       .  A
C2580      H2585   1.084   1_455  S
C2581      C2582   1.411       .  A
C2582      C2583   1.508       .  S
C2583      H2587   1.111       .  S
C2583      H2588   1.110       .  S
C2583      H2589   1.109       .  S
C2586      H2590   1.109       .  S
C2586      H2591   1.111       .  S
C2586      H2592   1.111       .  S
C2593      C2594   1.403       .  A
C2593      C2598   1.404       .  A
C2593      H2600   1.084       .  S
C2594      C2595   1.419       .  A
C2595      C2596   1.401       .  A
C2595      C2602   1.511       .  S
C2596      C2597   1.402       .  A
C2596      H2601   1.084       .  S
C2597      C2598   1.417       .  A
C2598      C2599   1.509       .  S
C2599      H2603   1.111       .  S
C2599      H2604   1.109       .  S
C2599      H2605   1.111       .  S
C2602      H2606   1.111       .  S
C2602      H2607   1.109       .  S
C2602      H2608   1.111       .  S
C2609      C2610   1.406       .  A
C2609      C2614   1.404       .  A
C2609      H2616   1.083       .  S
C2610      C2611   1.417       .  A
C2611      C2612   1.404       .  A
C2611      C2618   1.508       .  S
C2612      C2613   1.406       .  A
C2612      H2617   1.084       .  S
C2613      C2614   1.417       .  A
C2614      C2615   1.508       .  S
C2615      H2619   1.111       .  S
C2615      H2620   1.110       .  S
C2615      H2621   1.109       .  S
C2618      H2622   1.109       .  S
C2618      H2623   1.110       .  S
C2618      H2624   1.111       .  S
C2625      C2626   1.399       .  A
C2625      C2630   1.403       .  A
C2625      H2632   1.084   1_455  S
C2626      C2627   1.414       .  A
C2627      C2628   1.406       .  A
C2627      C2634   1.507       .  S
C2628      C2629   1.404       .  A
C2628      H2633   1.084       .  S
C2629      C2630   1.418       .  A
C2630      C2631   1.506   1_455  S
C2631      H2635   1.111       .  S
C2631      H2636   1.108   1_655  S
C2631      H2637   1.110       .  S
C2634      H2638   1.109       .  S
C2634      H2639   1.110       .  S
C2634      H2640   1.111       .  S
C2641      C2642   1.403       .  A
C2641      C2646   1.403       .  A
C2641      H2648   1.084       .  S
C2642      C2643   1.416       .  A
C2643      C2644   1.398       .  A
C2643      C2650   1.509       .  S
C2644      C2645   1.402       .  A
C2644      H2649   1.084       .  S
C2645      C2646   1.418       .  A
C2647      H2651   1.111   1_455  S
C2647      H2652   1.109   1_455  S
C2647      H2653   1.111       .  S
C2650      H2654   1.110       .  S
C2650      H2655   1.109       .  S
C2650      H2656   1.111       .  S
C2657      C2658   1.402       .  A
C2657      C2662   1.398       .  A
C2657      H2664   1.084       .  S
C2658      C2659   1.413       .  A
C2659      C2660   1.398       .  A
C2659      C2666   1.510       .  S
C2660      C2661   1.404       .  A
C2660      H2665   1.084       .  S
C2661      C2662   1.413       .  A
C2662      C2663   1.509       .  S
C2663      H2667   1.111       .  S
C2663      H2668   1.109       .  S
C2663      H2669   1.111       .  S
C2666      H2670   1.111       .  S
C2666      H2671   1.109       .  S
C2666      H2672   1.111       .  S
C2673      C2674   1.401       .  A
C2673      C2678   1.399       .  A
C2673      H2680   1.085   1_455  S
C2674      C2675   1.414       .  A
C2675      C2676   1.398       .  A
C2675      C2682   1.508       .  S
C2676      C2677   1.403       .  A
C2676      H2681   1.084       .  S
C2677      C2678   1.417       .  A
C2678      C2679   1.510   1_455  S
C2679      H2683   1.111       .  S
C2679      H2684   1.109       .  S
C2679      H2685   1.111       .  S
C2682      H2686   1.110       .  S
C2682      H2687   1.109       .  S
C2682      H2688   1.111       .  S
C2689      C2690   1.406       .  A
C2689      C2694   1.404       .  A
C2689      H2696   1.084   1_545  S
C2691      C2692   1.400       .  A
C2691      C2698   1.506       .  S
C2692      C2693   1.402       .  A
C2692      H2697   1.084       .  S
C2694      C2695   1.507   1_545  S
C2695      H2699   1.111       .  S
C2695      H2700   1.109   1_565  S
C2695      H2701   1.110       .  S
C2698      H2702   1.109       .  S
C2698      H2703   1.109       .  S
C2698      H2704   1.111       .  S
C2705      C2706   1.401       .  A
C2705      C2710   1.401   1_545  A
C2705      H2712   1.085   1_545  S
C2707      C2708   1.405       .  A
C2707      C2714   1.507       .  S
C2708      H2713   1.084       .  S
C2709      C2710   1.415   1_545  A
C2710      C2711   1.506       .  S
C2711      H2715   1.111       .  S
C2711      H2716   1.106       .  S
C2711      H2717   1.110       .  S
C2714      H2718   1.111       .  S
C2714      H2719   1.108       .  S
C2714      H2720   1.111       .  S
C2721      C2722   1.396   1_565  A
C2721      H2728   1.085   1_455  S
C2723      C2724   1.404       .  A
C2723      C2730   1.506       .  S
C2724      C2725   1.402       .  A
C2724      H2729   1.084       .  S
C2725      C2726   1.414       .  A
C2726      C2727   1.507   1_455  S
C2727      H2732   1.107       .  S
C2730      H2734   1.109       .  S
C2730      H2736   1.111       .  S
